geometry optimzed in LAMMPS
_audit_creation_date              2020-11-30 
_audit_creation_method            'lammps2cif' 
_symmetry_space_group_name_H-M    'P1' 
_symmetry_Int_Tables_number       1 
_symmetry_cell_setting            triclinic 
loop_ 
_symmetry_equiv_pos_as_xyz 
  x,y,z 
_cell_length_a                    48.72804121 
_cell_length_b                    48.79001025147918 
_cell_length_c                    48.80269968781887 
_cell_angle_alpha                 90.37277470284354 
_cell_angle_beta                  89.3808000837804 
_cell_angle_gamma                 89.99238005043375 
loop_ 
_atom_site_label 
_atom_site_type_symbol 
_atom_site_fract_x 
_atom_site_fract_y 
_atom_site_fract_z 
_atom_site_charge 
O1          O  0.03691498  0.47087114  0.29399457    -0.79800
O2          O  0.97554811  0.56496655  0.27595032    -0.79800
O3          O  0.05756909  0.53411465  0.26320912    -0.79900
O4          O  0.94986279  0.47107424  0.25895066    -0.79800
O5          O  0.02279489  0.53816854  0.29209462    -0.79900
O6          O  0.97980387  0.46611495  0.29158205    -0.79800
O7          O  0.95752219  0.52329600  0.27334115    -0.79800
O8          O  0.06909029  0.48075636  0.26352816    -0.79900
C9          C  0.06204904  0.47168304  0.28722093     1.09900
C10         C  0.95695277  0.54799513  0.28320776     1.09700
C11         C  0.04773044  0.54317091  0.28563916     1.09900
C12         C  0.95575837  0.46230152  0.28275533     1.09800
O13         O  0.98641164  0.44199188  0.23671035    -0.79800
O14         O  0.02187683  0.56287328  0.23931411    -0.79900
O15         O  0.04411420  0.47665037  0.20857129    -0.79800
O16         O  0.93911352  0.51455468  0.22103631    -0.79800
O17         O  0.97428375  0.54298780  0.22428630    -0.79900
O18         O  0.04127476  0.44522606  0.24051531    -0.79800
O19         O  0.97862654  0.47527275  0.20744605    -0.79800
O20         O  0.03486988  0.53251365  0.20897880    -0.79900
Co21       Co  0.01087257  0.45890298  0.26554011     1.51500
Co22       Co  0.99739516  0.53631859  0.26001609     1.51700
Co23       Co  0.04872768  0.50546406  0.23621045     1.51600
Co24       Co  0.97125268  0.50099166  0.23889863     1.51500
O25         O  0.01033135  0.49789687  0.25071586    -1.41800
C26         C  0.97901059  0.44970525  0.21294812     1.09800
C27         C  0.03261826  0.55754567  0.21597366     1.09900
C28         C  0.04873587  0.45271043  0.21659446     1.09800
C29         C  0.95087775  0.53668342  0.21365372     1.09800
O30         O  0.53142325  0.02293259  0.29482969    -0.79800
O31         O  0.44423287  0.98998147  0.28937767    -0.79800
O32         O  0.48093460  0.06427511  0.25973036    -0.79900
O33         O  0.53315554  0.95428396  0.27235438    -0.79800
O34         O  0.47883865  0.03491651  0.29291456    -0.79900
O35         O  0.56772783  0.98110578  0.28667777    -0.79800
O36         O  0.47468438  0.95888049  0.27418289    -0.79800
O37         O  0.53533144  0.05810055  0.26702013    -0.79900
C38         C  0.53695649  0.04786232  0.29106497     1.09900
C39         C  0.45440766  0.96568853  0.29056042     1.09700
C40         C  0.47532056  0.05926332  0.28447123     1.09900
C41         C  0.55460517  0.95839086  0.28752422     1.09800
O42         O  0.56160043  0.97850615  0.23412168    -0.79800
O43         O  0.44933566  0.03089546  0.24064212    -0.79900
O44         O  0.53969798  0.03516999  0.21173388    -0.79800
O45         O  0.47806087  0.96424152  0.21205650    -0.79800
O46         O  0.44849635  0.98358949  0.23807307    -0.79900
O47         O  0.56811662  0.02631202  0.24512481    -0.79800
O48         O  0.52959695  0.96065057  0.21099187    -0.79800
O49         O  0.48166202  0.03791645  0.20875319    -0.79900
Co50       Co  0.54211565  0.99912827  0.26415112     1.51500
Co51       Co  0.47059340  0.00547451  0.26530283     1.51700
Co52       Co  0.50964627  0.04638517  0.23629749     1.51600
Co53       Co  0.50404239  0.96329496  0.24253705     1.51500
O54         O  0.50663338  0.00623441  0.24587162    -1.41800
C55         C  0.55448107  0.96563531  0.21321443     1.09800
C56         C  0.45648079  0.03840450  0.21629027     1.09900
C57         C  0.56404042  0.03457086  0.22048935     1.09800
C58         C  0.45372996  0.96990613  0.21692871     1.09800
O59         O  0.20620529  0.02550577  0.48137800    -0.79800
O60         O  0.20425654  0.96460844  0.53187290    -0.79800
O61         O  0.23694440  0.96583172  0.44323553    -0.79900
O62         O  0.22926834  0.02018909  0.55239725    -0.79800
O63         O  0.20404762  0.96375398  0.47418106    -0.79900
O64         O  0.22085740  0.05692044  0.52724818    -0.79800
O65         O  0.23746255  0.96924736  0.56152742    -0.79800
O66         O  0.23679566  0.01936659  0.44814321    -0.79900
C67         C  0.21385384  0.02872639  0.45638136     1.09900
C68         C  0.21226587  0.96432529  0.55666155     1.09700
C69         C  0.21155758  0.96303035  0.44931975     1.09900
C70         C  0.21779624  0.04391708  0.54958351     1.09800
O71         O  0.27284544  0.03391280  0.53044027    -0.79800
O72         O  0.25602743  0.93322056  0.47479336    -0.79900
O73         O  0.29043782  0.02252804  0.47095964    -0.79800
O74         O  0.28909847  0.96425682  0.53119791    -0.79800
O75         O  0.25543019  0.93484012  0.52920042    -0.79900
O76         O  0.25773723  0.05101891  0.48279360    -0.79800
O77         O  0.28128081  0.00815783  0.56700295    -0.79800
O78         O  0.28989986  0.96277805  0.46999852    -0.79900
Co79       Co  0.23698175  0.02623597  0.50837019     1.51500
Co80       Co  0.22995054  0.95150586  0.50219585     1.51700
Co81       Co  0.26362754  0.99215639  0.46088599     1.51600
Co82       Co  0.26079708  0.99364139  0.53751836     1.51500
O83         O  0.24763043  0.98852454  0.49928129    -1.41800
C84         C  0.28667356  0.02918417  0.55236182     1.09800
C85         C  0.28147392  0.93810001  0.46994873     1.09900
C86         C  0.28129162  0.04719174  0.47203713     1.09800
C87         C  0.28066630  0.93959301  0.53324746     1.09800
O88         O  0.01326594  0.29436302  0.52524660    -0.79800
O89         O  0.97297801  0.29254379  0.46178919    -0.79800
O90         O  0.05892670  0.25981283  0.46645917    -0.79900
O91         O  0.95125694  0.27732404  0.51803270    -0.79800
O92         O  0.02778142  0.29112013  0.45968789    -0.79900
O93         O  0.96994756  0.27759607  0.55866600    -0.79800
O94         O  0.94060052  0.26269911  0.46941327    -0.79800
O95         O  0.05011164  0.26735990  0.52118206    -0.79900
C96         C  0.03871068  0.29000132  0.52856405     1.09900
C97         C  0.94827890  0.28573135  0.45977313     1.09700
C98         C  0.05229494  0.28349526  0.45799344     1.09900
C99         C  0.95061530  0.28510573  0.54313554     1.09800
O100        O  0.96886294  0.22572777  0.53696948    -0.79800
O101        O  0.02602438  0.23616603  0.43482510    -0.79900
O102        O  0.02768391  0.21135036  0.52500069    -0.79800
O103        O  0.96694521  0.20893480  0.47475685    -0.79800
O104        O  0.97152163  0.23669566  0.43940246    -0.79900
O105        O  0.01704141  0.24429957  0.55343377    -0.79800
O106        O  0.92999828  0.22572196  0.51423242    -0.79800
O107        O  0.03188373  0.20701707  0.46851658    -0.79900
Co108      Co  0.98992113  0.26169590  0.52813925     1.51500
Co109      Co  0.99966588  0.26414946  0.45124547     1.51700
Co110      Co  0.03976989  0.23654294  0.49521278     1.51600
Co111      Co  0.96225565  0.24163946  0.49781930     1.51500
O112        O  0.00149296  0.25111002  0.49011191    -1.41800
C113        C  0.94404076  0.21715239  0.53431217     1.09800
C114        C  0.03182155  0.21209128  0.44308516     1.09900
C115        C  0.02734912  0.22081992  0.54913180     1.09800
C116        C  0.96362035  0.21404480  0.44969660     1.09800
O117        O  0.46766544  0.29722683  0.01790015    -0.79800
O118        O  0.52873913  0.29528042  0.96653843    -0.79800
O119        O  0.52837602  0.27257863  0.05628511    -0.79900
O120        O  0.47072117  0.27605019  0.95300417    -0.79800
O121        O  0.53452952  0.30140706  0.02230223    -0.79900
O122        O  0.43206658  0.27796389  0.97741772    -0.79800
O123        O  0.52079619  0.26203459  0.93757393    -0.79800
O124        O  0.47303662  0.27005860  0.05321623    -0.79900
C125        C  0.46674254  0.29330056  0.04364692     1.09900
C126        C  0.52977082  0.28614163  0.94229181     1.09700
C127        C  0.53710846  0.29566149  0.04729134     1.09900
C128        C  0.44568854  0.28425682  0.95590719     1.09800
O129        O  0.45496982  0.22685099  0.97485548    -0.79800
O130        O  0.56108716  0.24849004  0.02491377    -0.79900
O131        O  0.47428546  0.21406631  0.03318670    -0.79800
O132        O  0.52108097  0.21161389  0.96847780    -0.79800
O133        O  0.55490839  0.24161851  0.97005405    -0.79900
O134        O  0.44192612  0.24358604  0.02421897    -0.79800
O135        O  0.47642800  0.22347594  0.93510098    -0.79800
O136        O  0.53075560  0.21653602  0.03450767    -0.79900
Co137      Co  0.46431064  0.26368483  0.99481263     1.51500
Co138      Co  0.54211752  0.27134920  0.99608644     1.51700
Co139      Co  0.50170103  0.24335082  0.04164749     1.51600
Co140      Co  0.49479197  0.24250975  0.96409637     1.51500
O141        O  0.50390964  0.25550351  0.00207028    -1.41800
C142        C  0.45649004  0.21629641  0.95059775     1.09800
C143        C  0.55488998  0.22552335  0.03554179     1.09900
C144        C  0.44909970  0.22046174  0.03403858     1.09800
C145        C  0.54643541  0.21730891  0.96532790     1.09800
O146        O  0.28840655  0.53867753  0.02819574    -0.79800
O147        O  0.28623772  0.45946489  0.97167607    -0.79800
O148        O  0.26433248  0.48158865  0.05542278    -0.79900
O149        O  0.25728736  0.52434550  0.94069465    -0.79800
O150        O  0.28714081  0.46003017  0.02470140    -0.79900
O151        O  0.28984647  0.53599252  0.97008284    -0.79800
O152        O  0.26114404  0.47948571  0.94311252    -0.79800
O153        O  0.25487562  0.53018088  0.05810653    -0.79900
C154        C  0.27878822  0.53980036  0.05246003     1.09900
C155        C  0.28190386  0.46554749  0.94746236     1.09700
C156        C  0.28392212  0.46624911  0.04940578     1.09900
C157        C  0.28175098  0.53286752  0.94557977     1.09800
O158        O  0.23666999  0.55896634  0.96936981    -0.79800
O159        O  0.22690871  0.45591248  0.02997690    -0.79900
O160        O  0.20432810  0.52585197  0.02601884    -0.79800
O161        O  0.21084381  0.48592380  0.93859283    -0.79800
O162        O  0.22384564  0.45517469  0.97032919    -0.79900
O163        O  0.23355720  0.56005903  0.02413970    -0.79800
O164        O  0.20510990  0.52786627  0.97370779    -0.79800
O165        O  0.21268886  0.48471253  0.06298693    -0.79900
Co166      Co  0.26263089  0.54582748  0.99813461     1.51500
Co167      Co  0.25589689  0.46178478  0.99896891     1.51700
Co168      Co  0.23487474  0.50135168  0.03561605     1.51600
Co169      Co  0.23360071  0.50044493  0.96511019     1.51500
O170        O  0.25357874  0.50510967  0.99949617    -1.41800
C171        C  0.21202999  0.55150961  0.96596852     1.09800
C172        C  0.21223760  0.46081087  0.05184622     1.09900
C173        C  0.20976693  0.55089635  0.02993306     1.09800
C174        C  0.20869268  0.46223021  0.94941502     1.09800
O175        O  0.52994731  0.05378274  0.74037651    -0.79800
O176        O  0.47717801  0.94772896  0.73178202    -0.79800
O177        O  0.53630829  0.96391289  0.71245865    -0.79900
O178        O  0.46840835  0.01684495  0.71249370    -0.79800
O179        O  0.52691902  0.93642167  0.74620543    -0.79900
O180        O  0.47448278  0.05100607  0.74178970    -0.79800
O181        O  0.43782428  0.96961229  0.72606213    -0.79800
O182        O  0.53647602  0.02078139  0.70987614    -0.79900
C183        C  0.53779772  0.04569817  0.71647617     1.09900
C184        C  0.45325722  0.94900527  0.72059434     1.09700
C185        C  0.53589258  0.93975156  0.72193160     1.09900
C186        C  0.46625157  0.04240171  0.71871271     1.09800
O187        O  0.47408447  0.02570778  0.79493562    -0.79800
O188        O  0.52610207  0.96625447  0.79693879    -0.79900
O189        O  0.56245718  0.02370965  0.76410628    -0.79800
O190        O  0.45727096  0.96448289  0.77811673    -0.79800
O191        O  0.48538078  0.92926133  0.78364403    -0.79900
O192        O  0.53049686  0.02905367  0.79560620    -0.79800
O193        O  0.44297929  0.01551400  0.76473295    -0.79800
O194        O  0.55993986  0.96863279  0.76672169    -0.79900
Co195      Co  0.50259240  0.03722252  0.76796903     1.51500
Co196      Co  0.49987410  0.96058996  0.76604799     1.51700
Co197      Co  0.54588002  0.99452804  0.73845442     1.51600
Co198      Co  0.46730110  0.98922965  0.74334750     1.51500
O199        O  0.50646356  0.99839970  0.75314971    -1.41800
C200        C  0.44912976  0.02599518  0.78786981     1.09800
C201        C  0.55156047  0.96365696  0.79094014     1.09900
C202        C  0.55512658  0.03157798  0.78817877     1.09800
C203        C  0.46274728  0.94091820  0.78919684     1.09800
O204        O  0.74188023  0.52805532  0.05697426    -0.79800
O205        O  0.73999715  0.47231893  0.94180914    -0.79800
O206        O  0.71122990  0.53058386  0.96946760    -0.79900
O207        O  0.71009481  0.47325518  0.02929108    -0.79800
O208        O  0.74535077  0.52575633  0.94059201    -0.79900
O209        O  0.74366116  0.47482275  0.05819108    -0.79800
O210        O  0.70821614  0.47209125  0.97355913    -0.79800
O211        O  0.70915873  0.53346868  0.02710376    -0.79900
C212        C  0.71742895  0.53576585  0.05159582     1.09900
C213        C  0.71487937  0.46917813  0.94873945     1.09700
C214        C  0.72038768  0.53213667  0.94524939     1.09900
C215        C  0.71856268  0.47046333  0.05335157     1.09800
O216        O  0.79564028  0.47328885  0.02722579    -0.79800
O217        O  0.79764272  0.52261906  0.97049282    -0.79900
O218        O  0.76265477  0.55968102  0.02581293    -0.79800
O219        O  0.75903814  0.43887352  0.97220812    -0.79800
O220        O  0.79361326  0.46668344  0.96941314    -0.79900
O221        O  0.79516977  0.52941558  0.02702435    -0.79800
O222        O  0.76264804  0.44267913  0.02615394    -0.79800
O223        O  0.76717511  0.55579485  0.97234559    -0.79900
Co224      Co  0.76883169  0.50126945  0.03870186     1.51500
Co225      Co  0.76879036  0.49703627  0.95929204     1.51700
Co226      Co  0.73771824  0.54091131  0.99847679     1.51600
Co227      Co  0.73538156  0.46028689  0.00030110     1.51500
O228        O  0.75234639  0.49988729  0.99926255    -1.41800
C229        C  0.78763954  0.44899479  0.03047853     1.09800
C230        C  0.79172733  0.54750793  0.96774163     1.09900
C231        C  0.78706318  0.55341837  0.03197894     1.09800
C232        C  0.78421642  0.44283240  0.96607944     1.09800
O233        O  0.06084477  0.74229141  0.52503842    -0.79800
O234        O  0.94274153  0.75235568  0.48266396    -0.79800
O235        O  0.98373288  0.72800386  0.56690657    -0.79900
O236        O  0.02688904  0.71166986  0.46405173    -0.79800
O237        O  0.95754011  0.73689058  0.53104651    -0.79900
O238        O  0.06114238  0.74097538  0.46958154    -0.79800
O239        O  0.96946289  0.71789989  0.47139967    -0.79800
O240        O  0.02680418  0.71348585  0.53200942    -0.79900
C241        C  0.05231703  0.71926389  0.53392983     1.09900
C242        C  0.94570310  0.72841759  0.47250943     1.09700
C243        C  0.96136958  0.72438277  0.55397342     1.09900
C244        C  0.05237579  0.71724198  0.46262945     1.09800
O245        O  0.03725086  0.79618969  0.46841890    -0.79800
O246        O  0.94168418  0.79093996  0.52776211    -0.79900
O247        O  0.02879524  0.76694318  0.55720867    -0.79800
O248        O  0.97397464  0.77277147  0.44711820    -0.79800
O249        O  0.97376785  0.80223072  0.48180790    -0.79900
O250        O  0.03629602  0.79698391  0.52461459    -0.79800
O251        O  0.02821753  0.76446293  0.43806120    -0.79800
O252        O  0.97933135  0.78045505  0.54987428    -0.79900
Co253      Co  0.04628894  0.76908833  0.49691284     1.51500
Co254      Co  0.96984624  0.77101923  0.50783851     1.51700
Co255      Co  0.00069051  0.74522007  0.53594289     1.51600
Co256      Co  0.99987867  0.74179360  0.45796233     1.51500
O257        O  0.00681261  0.75619333  0.49659496    -1.41800
C258        C  0.03670929  0.78841403  0.44371537     1.09800
C259        C  0.95648680  0.79386719  0.54894244     1.09900
C260        C  0.03791854  0.79018329  0.54941947     1.09800
C261        C  0.96813254  0.79652394  0.45695773     1.09800
O262        O  0.03016485  0.52948725  0.70806460    -0.79800
O263        O  0.97782384  0.46756109  0.70738413    -0.79800
O264        O  0.04665740  0.47054386  0.72680291    -0.79900
O265        O  0.93986520  0.52764160  0.73528724    -0.79800
O266        O  0.02023783  0.43379833  0.72254017    -0.79900
O267        O  0.97303587  0.53410555  0.70467843    -0.79800
O268        O  0.94433661  0.47285977  0.73766568    -0.79800
O269        O  0.05925295  0.52208507  0.74068539    -0.79900
C270        C  0.05477045  0.52890400  0.71610365     1.09900
C271        C  0.95300610  0.46371191  0.71462928     1.09700
C272        C  0.04259660  0.44607839  0.71686819     1.09900
C273        C  0.94772397  0.53445908  0.71126956     1.09800
O274        O  0.97171362  0.56284069  0.75621595    -0.79800
O275        O  0.02576494  0.45626172  0.77355151    -0.79900
O276        O  0.02964060  0.52267375  0.79159323    -0.79800
O277        O  0.96945232  0.47727876  0.79178584    -0.79800
O278        O  0.97691272  0.44404404  0.76245258    -0.79900
O279        O  0.02694146  0.55705109  0.76223167    -0.79800
O280        O  0.96601478  0.53273554  0.78863899    -0.79800
O281        O  0.06463333  0.47911499  0.77842027    -0.79900
Co282      Co  0.00055371  0.54330965  0.73292570     1.51500
Co283      Co  0.00372781  0.46584107  0.73856016     1.51700
Co284      Co  0.03434498  0.49598191  0.76059959     1.51600
Co285      Co  0.95739968  0.50277382  0.76321296     1.51500
O286        O  0.99611000  0.50501116  0.74834519    -1.41800
C287        C  0.96356026  0.55697053  0.78032094     1.09800
C288        C  0.04996482  0.45813053  0.78365007     1.09900
C289        C  0.03231929  0.54809980  0.78623713     1.09800
C290        C  0.96777090  0.45224530  0.78576645     1.09800
O291        O  0.53184615  0.71239480  0.02944546    -0.79800
O292        O  0.45052563  0.70661825  0.97218624    -0.79800
O293        O  0.48133700  0.71099087  0.03353732    -0.79900
O294        O  0.51812320  0.71347261  0.94830324    -0.79800
O295        O  0.44059973  0.72477490  0.02870439    -0.79900
O296        O  0.55253468  0.72580780  0.97418196    -0.79800
O297        O  0.46647290  0.72829754  0.93658839    -0.79800
O298        O  0.51681169  0.73572325  0.06519107    -0.79900
C299        C  0.53041605  0.71526069  0.05605713     1.09900
C300        C  0.45648133  0.70676406  0.94665318     1.09700
C301        C  0.45733090  0.71130267  0.04229738     1.09900
C302        C  0.54300047  0.71157288  0.95430080     1.09800
O303        O  0.53672740  0.78355581  0.98679854    -0.79800
O304        O  0.44678282  0.77865232  0.01051393    -0.79900
O305        O  0.53009882  0.77892187  0.03646658    -0.79800
O306        O  0.47945850  0.78460410  0.94628517    -0.79800
O307        O  0.44105214  0.76441926  0.95911834    -0.79900
O308        O  0.56461956  0.75364129  0.02242293    -0.79800
O309        O  0.53475183  0.76961522  0.94523118    -0.79800
O310        O  0.47115928  0.77046053  0.04732304    -0.79900
Co311      Co  0.53128053  0.74687536  0.00453666     1.51500
Co312      Co  0.44915728  0.74306355  0.99253503     1.51700
Co313      Co  0.50240445  0.74618687  0.03088900     1.51600
Co314      Co  0.49937134  0.74903427  0.94802521     1.51500
O315        O  0.49199328  0.74720000  0.99016088    -1.41800
C316        C  0.54482328  0.78547311  0.96266590     1.09800
C317        C  0.45118196  0.78282489  0.03548808     1.09900
C318        C  0.55639785  0.77372497  0.03668501     1.09800
C319        C  0.45356871  0.78474730  0.94900521     1.09800
O320        O  0.81192187  0.31016535  0.63325142    -0.79800
O321        O  0.77612396  0.39880719  0.67303241    -0.79800
O322        O  0.85220345  0.35546691  0.66618782    -0.79900
O323        O  0.74051916  0.35343519  0.59505348    -0.79800
O324        O  0.81050334  0.35615568  0.67933014    -0.79900
O325        O  0.76235369  0.32132379  0.61581332    -0.79800
O326        O  0.74478205  0.38096825  0.64517153    -0.79800
O327        O  0.85324918  0.32754676  0.63213254    -0.79900
C328        C  0.83725378  0.30751962  0.63696638     1.09900
C329        C  0.75201238  0.38944981  0.66871818     1.09700
C330        C  0.83496503  0.35042194  0.68494191     1.09900
C331        C  0.74147713  0.32896847  0.60337681     1.09800
O332        O  0.78542447  0.34720861  0.56550239    -0.79800
O333        O  0.83622912  0.40731507  0.67945402    -0.79900
O334        O  0.85778152  0.37069647  0.59393681    -0.79800
O335        O  0.77118769  0.42461394  0.61959678    -0.79800
O336        O  0.81356312  0.42245289  0.63261918    -0.79900
O337        O  0.83672730  0.33249904  0.58334927    -0.79800
O338        O  0.77802007  0.39161710  0.57169120    -0.79800
O339        O  0.86055422  0.40014084  0.64188353    -0.79900
Co340      Co  0.79876404  0.33049759  0.60118884     1.51500
Co341      Co  0.81141834  0.38794672  0.65422993     1.51700
Co342      Co  0.83956223  0.36663851  0.62884481     1.51600
Co343      Co  0.76213649  0.38636019  0.60891883     1.51500
O344        O  0.79746218  0.36670242  0.62263530    -1.41800
C345        C  0.78162189  0.37123529  0.55565666     1.09800
C346        C  0.85859319  0.41105907  0.66579539     1.09900
C347        C  0.85721333  0.34864707  0.58076675     1.09800
C348        C  0.79285591  0.43645791  0.62678176     1.09800
O349        O  0.59460792  0.32853263  0.84030917    -0.79800
O350        O  0.65564318  0.42497381  0.79147454    -0.79800
O351        O  0.65161102  0.38270779  0.87891435    -0.79900
O352        O  0.57315801  0.38297723  0.79328843    -0.79800
O353        O  0.65150031  0.41159611  0.84437378    -0.79900
O354        O  0.57517229  0.33809038  0.78897351    -0.79800
O355        O  0.61120001  0.42376351  0.79538619    -0.79800
O356        O  0.60074330  0.37006324  0.85793747    -0.79900
C357        C  0.58903892  0.34670461  0.85855061     1.09900
C358        C  0.63302973  0.43739171  0.79341308     1.09700
C359        C  0.65461810  0.40697898  0.87018101     1.09900
C360        C  0.56124048  0.36015130  0.79059764     1.09800
O361        O  0.62868423  0.32608998  0.76581238    -0.79800
O362        O  0.69826456  0.39949975  0.81591702    -0.79900
O363        O  0.64346386  0.33098078  0.85720399    -0.79800
O364        O  0.64284401  0.39600509  0.75131860    -0.79800
O365        O  0.67347389  0.37235011  0.77428773    -0.79900
O366        O  0.64867554  0.31566825  0.81575041    -0.79800
O367        O  0.60216072  0.35736861  0.74841689    -0.79800
O368        O  0.68103643  0.36266624  0.83586654    -0.79900
Co369      Co  0.61306537  0.32910979  0.80273555     1.51500
Co370      Co  0.66151217  0.38879927  0.80912244     1.51700
Co371      Co  0.63939455  0.36967004  0.84441567     1.51600
Co372      Co  0.60823815  0.38923126  0.77438520     1.51500
O373        O  0.62633130  0.36814031  0.80535797    -1.41800
C374        C  0.61469565  0.33460774  0.74612863     1.09800
C375        C  0.70180622  0.37711720  0.82817114     1.09900
C376        C  0.65074236  0.31197853  0.84107706     1.09800
C377        C  0.66648069  0.38475490  0.75280085     1.09800
O378        O  0.60606130  0.17663494  0.69279603    -0.79800
O379        O  0.66042389  0.22002873  0.59233863    -0.79800
O380        O  0.67093048  0.14652189  0.65220971    -0.79900
O381        O  0.58455090  0.25227109  0.64155602    -0.79800
O382        O  0.67776623  0.18656306  0.63420626    -0.79900
O383        O  0.59391967  0.22755729  0.67742064    -0.79800
O384        O  0.63562349  0.24883477  0.61697550    -0.79800
O385        O  0.64597537  0.18810348  0.67855587    -0.79900
C386        C  0.63062454  0.18138931  0.69831365     1.09900
C387        C  0.65698768  0.24388114  0.60279636     1.09700
C388        C  0.68769995  0.16545204  0.64671925     1.09900
C389        C  0.59201369  0.25056423  0.66603868     1.09800
O390        O  0.55105830  0.20504446  0.64282447    -0.79800
O391        O  0.67080152  0.16232965  0.58481644    -0.79900
O392        O  0.61564533  0.13877240  0.65900223    -0.79800
O393        O  0.61129185  0.22274185  0.57150078    -0.79800
O394        O  0.61973605  0.17956572  0.57428701    -0.79900
O395        O  0.57402411  0.15353616  0.65058800    -0.79800
O396        O  0.56274727  0.21622543  0.60057247    -0.79800
O397        O  0.63856931  0.14159163  0.60862000    -0.79900
Co398      Co  0.58370824  0.19121696  0.66254426     1.51500
Co399      Co  0.64517113  0.18394013  0.60625108     1.51700
Co400      Co  0.63985294  0.16765326  0.64256937     1.51600
Co401      Co  0.59976196  0.23162302  0.60959156     1.51500
O402        O  0.61211842  0.19624295  0.63049002    -1.41800
C403        C  0.54463481  0.21022608  0.61839841     1.09800
C404        C  0.65792829  0.14028149  0.59030317     1.09900
C405        C  0.58997600  0.13430669  0.65756451     1.09800
C406        C  0.61596270  0.20034845  0.55962697     1.09800
O407        O  0.89921516  0.19385717  0.67282773    -0.79800
O408        O  0.82923935  0.11963564  0.73527886    -0.79800
O409        O  0.82105561  0.14392929  0.64765275    -0.79900
O410        O  0.89763192  0.14041768  0.74189323    -0.79800
O411        O  0.81205430  0.14365705  0.69114068    -0.79900
O412        O  0.87488644  0.17132806  0.71843292    -0.79800
O413        O  0.86342892  0.09484180  0.74878186    -0.79800
O414        O  0.85811979  0.17991759  0.66107161    -0.79900
C415        C  0.87604879  0.19924125  0.66302712     1.09900
C416        C  0.83996310  0.10524959  0.75334336     1.09700
C417        C  0.80451313  0.14878900  0.66734570     1.09900
C418        C  0.88542811  0.16374980  0.74078881     1.09800
O419        O  0.92568463  0.15306467  0.69678136    -0.79800
O420        O  0.82155988  0.09367111  0.65802510    -0.79900
O421        O  0.86819895  0.15044265  0.61599914    -0.79800
O422        O  0.88679285  0.06992220  0.70076895    -0.79800
O423        O  0.84137932  0.06839213  0.70450009    -0.79900
O424        O  0.90377534  0.14661782  0.64353634    -0.79800
O425        O  0.92454475  0.10902588  0.69499794    -0.79800
O426        O  0.86060482  0.10022187  0.63665430    -0.79900
Co427      Co  0.88756673  0.15778341  0.68237041     1.51500
Co428      Co  0.82839694  0.10745871  0.69702505     1.51700
Co429      Co  0.86192189  0.13808357  0.65188247     1.51600
Co430      Co  0.89176634  0.10507839  0.71927430     1.51500
O431        O  0.86660710  0.12300162  0.69046047    -1.41800
C432        C  0.93842834  0.13063684  0.69517862     1.09800
C433        C  0.83670930  0.09013554  0.63687456     1.09900
C434        C  0.89395826  0.15159352  0.61932872     1.09800
C435        C  0.86468339  0.05651174  0.70186317     1.09800
O436        O  0.65449261  0.15338798  0.90932157    -0.79800
O437        O  0.70995871  0.07057516  0.84189015    -0.79800
O438        O  0.64191208  0.10354548  0.86836124    -0.79900
O439        O  0.70367296  0.10924057  0.92614116    -0.79800
O440        O  0.66054063  0.09408864  0.82798694    -0.79900
O441        O  0.70806795  0.15312354  0.92842607    -0.79800
O442        O  0.70596420  0.07099679  0.88690483    -0.79800
O443        O  0.62387256  0.15606609  0.87639620    -0.79900
C444        C  0.62959378  0.15879191  0.90151781     1.09900
C445        C  0.70736313  0.05804639  0.86463009     1.09700
C446        C  0.64087071  0.09110455  0.84544482     1.09900
C447        C  0.70552554  0.13040898  0.94081035     1.09800
O448        O  0.72988953  0.16947838  0.87542946    -0.79800
O449        O  0.69168849  0.14489522  0.81318661    -0.79900
O450        O  0.67085799  0.18159770  0.86106535    -0.79800
O451        O  0.75360803  0.09574015  0.86128154    -0.79800
O452        O  0.73800167  0.12186246  0.82879573    -0.79900
O453        O  0.68757812  0.19703924  0.89997062    -0.79800
O454        O  0.75054190  0.13769125  0.89936113    -0.79800
O455        O  0.64945173  0.14447367  0.82683441    -0.79900
Co456      Co  0.69319311  0.15984301  0.89019700     1.51500
Co457      Co  0.69996633  0.10912825  0.83033787     1.51700
Co458      Co  0.65859106  0.14084999  0.86716538     1.51600
Co459      Co  0.72608704  0.10477176  0.89224414     1.51500
O460        O  0.69658769  0.12430257  0.86919330    -1.41800
C461        C  0.75152557  0.16003651  0.88603403     1.09800
C462        C  0.66704574  0.15004089  0.80837528     1.09900
C463        C  0.67639093  0.20190501  0.87725562     1.09800
C464        C  0.75687175  0.10731306  0.83813483     1.09800
O465        O  0.81348900  0.30821079  0.85488449    -0.79800
O466        O  0.87705849  0.27466145  0.82070840    -0.79800
O467        O  0.85929803  0.33192249  0.81702041    -0.79900
O468        O  0.86422754  0.24035705  0.89056709    -0.79800
O469        O  0.89968715  0.32111782  0.79959451    -0.79900
O470        O  0.83071207  0.26002471  0.86918722    -0.79800
O471        O  0.90165824  0.24977658  0.84811855    -0.79800
O472        O  0.82654541  0.35023614  0.85934409    -0.79900
C473        C  0.80817431  0.33320371  0.85321631     1.09900
C474        C  0.88879571  0.25208858  0.82562733     1.09700
C475        C  0.87542009  0.32937956  0.79577716     1.09900
C476        C  0.84078633  0.23888696  0.87926282     1.09800
O477        O  0.84621660  0.27966346  0.92408996    -0.79800
O478        O  0.90835614  0.34821209  0.84634878    -0.79900
O479        O  0.86801155  0.35410348  0.89783814    -0.79800
O480        O  0.92809540  0.29204516  0.88357288    -0.79800
O481        O  0.92960083  0.29588708  0.83955310    -0.79900
O482        O  0.83005800  0.33178048  0.90856975    -0.79800
O483        O  0.89076036  0.28424386  0.92121113    -0.79800
O484        O  0.87338759  0.37656622  0.84644839    -0.79900
Co485      Co  0.83260942  0.29521538  0.88789761     1.51500
Co486      Co  0.89071770  0.31015991  0.83567800     1.51700
Co487      Co  0.86652230  0.34068660  0.85887074     1.51600
Co488      Co  0.89474469  0.26910402  0.88479967     1.51500
O489        O  0.87071254  0.30128091  0.87123072    -1.41800
C490        C  0.86968225  0.28067279  0.93551817     1.09800
C491        C  0.89871429  0.37266382  0.84217576     1.09900
C492        C  0.84592263  0.35242509  0.91213926     1.09800
C493        C  0.94217322  0.29511417  0.86220878     1.09800
O494        O  0.30722551  0.15860657  0.60172244    -0.79800
O495        O  0.40155821  0.20966266  0.66496951    -0.79800
O496        O  0.34047825  0.13177066  0.67371824    -0.79900
O497        O  0.32718096  0.22952335  0.61535825    -0.79800
O498        O  0.36074077  0.17166229  0.68057993    -0.79900
O499        O  0.31943386  0.20705425  0.57760240    -0.79800
O500        O  0.36279084  0.22536178  0.65416589    -0.79800
O501        O  0.31507019  0.17055198  0.64407810    -0.79900
C502        C  0.29818757  0.16564151  0.62528017     1.09900
C503        C  0.38397690  0.22852122  0.66769315     1.09700
C504        C  0.34656360  0.15109983  0.68983635     1.09900
C505        C  0.31365192  0.22692594  0.59381599     1.09800
O506        O  0.37313137  0.18404599  0.56074403    -0.79800
O507        O  0.41323546  0.15483825  0.67159188    -0.79900
O508        O  0.33856404  0.12177185  0.61955395    -0.79800
O509        O  0.40886510  0.22083216  0.61326693    -0.79800
O510        O  0.41846088  0.17688199  0.61973415    -0.79900
O511        O  0.36163289  0.13624182  0.58446630    -0.79800
O512        O  0.36950558  0.22718497  0.57278062    -0.79800
O513        O  0.38758476  0.12913168  0.64530504    -0.79900
Co514      Co  0.34193598  0.17158989  0.58293369     1.51500
Co515      Co  0.38906437  0.17360647  0.64762492     1.51700
Co516      Co  0.35127986  0.15267399  0.64337235     1.51600
Co517      Co  0.36697607  0.22366308  0.61450489     1.51500
O518        O  0.36237348  0.18278848  0.61728254    -1.41800
C519        C  0.37438265  0.20893717  0.55459159     1.09800
C520        C  0.40729183  0.13109945  0.66286959     1.09900
C521        C  0.34929029  0.11709683  0.59632929     1.09800
C522        C  0.42599765  0.20078304  0.61274418     1.09800
O523        O  0.15381919  0.32770021  0.57626669    -0.79800
O524        O  0.19879410  0.42618479  0.61731081    -0.79800
O525        O  0.13206300  0.37356544  0.64712532    -0.79900
O526        O  0.22819379  0.37625596  0.57382760    -0.79800
O527        O  0.15121304  0.41193183  0.63854228    -0.79900
O528        O  0.18335951  0.37634986  0.57408557    -0.79800
O529        O  0.24183440  0.41516596  0.61371688    -0.79800
O530        O  0.12846122  0.33542540  0.61325462    -0.79900
C531        C  0.13009781  0.32764985  0.58825659     1.09900
C532        C  0.22296691  0.43292197  0.61199484     1.09700
C533        C  0.13100505  0.39909269  0.64815686     1.09900
C534        C  0.20576473  0.38003486  0.56123881     1.09800
O535        O  0.21509744  0.32491135  0.57853793    -0.79800
O536        O  0.17934800  0.38436729  0.68349985    -0.79900
O537        O  0.16320053  0.32194394  0.65303550    -0.79800
O538        O  0.25191753  0.37226860  0.65120174    -0.79800
O539        O  0.22782878  0.40785072  0.66643048    -0.79900
O540        O  0.18582183  0.30814206  0.61829234    -0.79800
O541        O  0.24269482  0.33317397  0.61238148    -0.79800
O542        O  0.16101260  0.34499953  0.66754774    -0.79900
Co543      Co  0.18320314  0.34450835  0.59883772     1.51500
Co544      Co  0.19001956  0.40475860  0.64982017     1.51700
Co545      Co  0.16141273  0.35339380  0.62667294     1.51600
Co546      Co  0.23839797  0.37355238  0.61367187     1.51500
O547        O  0.19961029  0.36852156  0.63005141    -1.41800
C548        C  0.23704404  0.31900626  0.59143450     1.09800
C549        C  0.16838074  0.36100480  0.68740288     1.09900
C550        C  0.17418625  0.30209244  0.64044556     1.09800
C551        C  0.24857750  0.39202673  0.66780983     1.09800
O552        O  0.35709805  0.30909772  0.80718596    -0.79800
O553        O  0.33014207  0.40047011  0.77396597    -0.79800
O554        O  0.32924627  0.35227052  0.84834438    -0.79900
O555        O  0.40316262  0.34694265  0.73850771    -0.79800
O556        O  0.31653618  0.35655398  0.80687939    -0.79900
O557        O  0.37658401  0.31803596  0.75901863    -0.79800
O558        O  0.35623033  0.37990374  0.74244483    -0.79800
O559        O  0.36007632  0.32239127  0.84921624    -0.79900
C560        C  0.35332963  0.30405320  0.83193852     1.09900
C561        C  0.33412435  0.39208599  0.74947209     1.09700
C562        C  0.31072413  0.34847751  0.83082313     1.09900
C563        C  0.39077342  0.32419891  0.73864197     1.09800
O564        O  0.42928490  0.33588783  0.78199306    -0.79800
O565        O  0.32127915  0.40765333  0.83247944    -0.79900
O566        O  0.40192306  0.36037101  0.85674824    -0.79800
O567        O  0.38582720  0.42014183  0.77039399    -0.79800
O568        O  0.37083802  0.41836563  0.81224405    -0.79900
O569        O  0.40949912  0.32291453  0.83308882    -0.79800
O570        O  0.42808019  0.38106784  0.77920100    -0.79800
O571        O  0.35667223  0.39599622  0.85755029    -0.79900
Co572      Co  0.39185353  0.32407722  0.79516690     1.51500
Co573      Co  0.34535876  0.38605533  0.80884303     1.51700
Co574      Co  0.36776604  0.36145026  0.83701859     1.51600
Co575      Co  0.39221577  0.38081164  0.76090190     1.51500
O576        O  0.37515955  0.36222375  0.79515042    -1.41800
C577        C  0.44149740  0.35899457  0.78235075     1.09800
C578        C  0.33448301  0.40990935  0.85493189     1.09900
C579        C  0.41312059  0.33728697  0.85478502     1.09800
C580        C  0.37816721  0.43238779  0.79188228     1.09800
O581        O  0.14519153  0.35076960  0.90728815    -0.79800
O582        O  0.07734746  0.31610008  0.87142584    -0.79800
O583        O  0.11569165  0.36280186  0.85175463    -0.79900
O584        O  0.11100857  0.26480327  0.92008155    -0.79800
O585        O  0.08721873  0.34075115  0.82410674    -0.79900
O586        O  0.11942476  0.30787648  0.92790895    -0.79800
O587        O  0.07592636  0.27142207  0.87332624    -0.79800
O588        O  0.17195052  0.36147326  0.87459344    -0.79900
C589        C  0.16229798  0.36738472  0.89731615     1.09900
C590        C  0.06333050  0.29425933  0.87253441     1.09700
C591        C  0.09451493  0.36288697  0.83580020     1.09900
C592        C  0.11152615  0.28513289  0.93673577     1.09800
O593        O  0.16588524  0.27198749  0.91701091    -0.79800
O594        O  0.13330668  0.31399692  0.80999982    -0.79900
O595        O  0.18271786  0.31630821  0.84413213    -0.79800
O596        O  0.12210181  0.25393849  0.83931108    -0.79800
O597        O  0.09248607  0.28323126  0.82371837    -0.79900
O598        O  0.19137635  0.31363681  0.88826817    -0.79800
O599        O  0.15351859  0.24784241  0.88138922    -0.79800
O600        O  0.15394225  0.35143050  0.81826829    -0.79900
Co601      Co  0.15375860  0.31044810  0.90725368     1.51500
Co602      Co  0.10782962  0.31587595  0.84390025     1.51700
Co603      Co  0.14921962  0.33622975  0.85429004     1.51600
Co604      Co  0.11664991  0.26237742  0.87811040     1.51500
O605        O  0.13366003  0.30068036  0.87114464    -1.41800
C606        C  0.16763007  0.25039295  0.90248366     1.09800
C607        C  0.14590541  0.33493877  0.80093266     1.09900
C608        C  0.19990920  0.31398727  0.86324102     1.09800
C609        C  0.10435982  0.26010078  0.82210209     1.09800
O610        O  0.18339952  0.14678348  0.68711111    -0.79800
O611        O  0.08604641  0.17173202  0.72193640    -0.79800
O612        O  0.13794025  0.17313877  0.65112259    -0.79900
O613        O  0.14224830  0.10582624  0.76049760    -0.79800
O614        O  0.13199951  0.18526868  0.69274917    -0.79900
O615        O  0.17254286  0.13107467  0.73959175    -0.79800
O616        O  0.10683791  0.14884210  0.75457032    -0.79800
O617        O  0.16626116  0.14168767  0.64627253    -0.79900
C618        C  0.18606458  0.14897098  0.66140539     1.09900
C619        C  0.09464869  0.17009688  0.74626829     1.09700
C620        C  0.14153110  0.19111624  0.66947844     1.09900
C621        C  0.16422916  0.11975497  0.76131133     1.09800
O622        O  0.15688012  0.07653011  0.71905481    -0.79800
O623        O  0.08196487  0.18081818  0.66524370    -0.79900
O624        O  0.13299044  0.09951298  0.64033337    -0.79800
O625        O  0.06932701  0.11571477  0.72515125    -0.79800
O626        O  0.07296884  0.12957340  0.68295451    -0.79900
O627        O  0.16848088  0.09269886  0.66672041    -0.79800
O628        O  0.11134551  0.07506867  0.72088322    -0.79800
O629        O  0.09413005  0.14652408  0.63800064    -0.79900
Co630      Co  0.16737267  0.11322562  0.70329324     1.51500
Co631      Co  0.10353186  0.15652049  0.68824249     1.51700
Co632      Co  0.12788684  0.13428121  0.65992826     1.51600
Co633      Co  0.10856054  0.11222262  0.73703329     1.51500
O634        O  0.12783644  0.12785175  0.70227281    -1.41800
C635        C  0.13445331  0.06305086  0.71873538     1.09800
C636        C  0.08053916  0.16897411  0.64189994     1.09900
C637        C  0.15577491  0.08787192  0.64437518     1.09800
C638        C  0.05823915  0.12164844  0.70270305     1.09800
O639        O  0.30991802  0.18368708  0.86069936    -0.79800
O640        O  0.27041760  0.12938665  0.83712798    -0.79800
O641        O  0.32767453  0.14124416  0.82279450    -0.79900
O642        O  0.24901476  0.14091634  0.91285413    -0.79800
O643        O  0.30980717  0.10292046  0.80711482    -0.79900
O644        O  0.26493149  0.17212926  0.88549413    -0.79800
O645        O  0.24857698  0.10538285  0.86844763    -0.79800
O646        O  0.35275478  0.17311989  0.85921987    -0.79900
C647        C  0.33400735  0.19081265  0.85647692     1.09900
C648        C  0.24838023  0.11883692  0.84602936     1.09700
C649        C  0.32082177  0.12594139  0.80242509     1.09900
C650        C  0.24676304  0.16420595  0.90172029     1.09800
O651        O  0.29397626  0.15810308  0.93549455    -0.79800
O652        O  0.34255807  0.08975462  0.84968486    -0.79900
O653        O  0.36120424  0.13064307  0.89735761    -0.79800
O654        O  0.29489686  0.07571765  0.89459295    -0.79800
O655        O  0.28811209  0.07488896  0.85120170    -0.79900
O656        O  0.34235051  0.17002929  0.90977082    -0.79800
O657        O  0.29578830  0.11284474  0.93416524    -0.79800
O658        O  0.37468696  0.12095067  0.84352381    -0.79900
Co659      Co  0.30278749  0.16916201  0.89676652     1.51500
Co660      Co  0.30585307  0.11177125  0.84496204     1.51700
Co661      Co  0.34203209  0.13284603  0.86185296     1.51600
Co662      Co  0.27427886  0.10956162  0.90113988     1.51500
O663        O  0.30481167  0.13112191  0.88139950    -1.41800
C664        C  0.29609252  0.13505917  0.94732471     1.09800
C665        C  0.36745842  0.09598964  0.84243735     1.09900
C666        C  0.36250758  0.15327980  0.91033062     1.09800
C667        C  0.29042759  0.06192220  0.87349114     1.09800
O668        O  0.58830176  0.82215614  0.67808793    -0.79800
O669        O  0.65814891  0.78843447  0.57907295    -0.79800
O670        O  0.64541166  0.87039823  0.63532798    -0.79900
O671        O  0.57114759  0.78268032  0.61350827    -0.79800
O672        O  0.65503691  0.84069330  0.60185155    -0.79900
O673        O  0.57018106  0.77484476  0.65788184    -0.79800
O674        O  0.61337054  0.78978964  0.57772524    -0.79800
O675        O  0.59533063  0.84583755  0.64055456    -0.79900
C676        C  0.58337574  0.84338519  0.66383212     1.09900
C677        C  0.63609296  0.78991807  0.56539329     1.09700
C678        C  0.65429969  0.86587960  0.61122141     1.09900
C679        C  0.55778666  0.78076516  0.63578037     1.09800
O680        O  0.62512455  0.75069135  0.66719149    -0.79800
O681        O  0.69927092  0.80768769  0.61444265    -0.79900
O682        O  0.63567032  0.84001210  0.68084155    -0.79800
O683        O  0.64297336  0.74318598  0.60256982    -0.79800
O684        O  0.67064739  0.76360487  0.63165477    -0.79900
O685        O  0.64197507  0.79734182  0.68952335    -0.79800
O686        O  0.59723754  0.73537319  0.63678568    -0.79800
O687        O  0.67664939  0.82700829  0.64910576    -0.79900
Co688      Co  0.60776081  0.78621676  0.67146285     1.51500
Co689      Co  0.66099781  0.80077403  0.61887745     1.51700
Co690      Co  0.63456668  0.83392105  0.64043726     1.51600
Co691      Co  0.60722209  0.76498269  0.60872591     1.51500
O692        O  0.62327412  0.79476041  0.63448947    -1.41800
C693        C  0.60919083  0.73229656  0.65951238     1.09800
C694        C  0.69960147  0.82018108  0.63729909     1.09900
C695        C  0.64273506  0.82178947  0.69758117     1.09800
C696        C  0.66458472  0.74281091  0.61729788     1.09800
O697        O  0.84800736  0.65446099  0.59197250    -0.79800
O698        O  0.79091943  0.56875201  0.65777296    -0.79800
O699        O  0.85982346  0.60131622  0.63000282    -0.79900
O700        O  0.79932260  0.60874365  0.57558333    -0.79800
O701        O  0.84135143  0.59046638  0.67009189    -0.79900
O702        O  0.79427489  0.65258467  0.57498728    -0.79800
O703        O  0.79657499  0.56936113  0.61315810    -0.79800
O704        O  0.87917962  0.65290325  0.62432058    -0.79900
C705        C  0.87317830  0.65840909  0.59996776     1.09900
C706        C  0.79378172  0.55610770  0.63501962     1.09700
C707        C  0.86076804  0.58813572  0.65232381     1.09900
C708        C  0.79834915  0.63041682  0.56198331     1.09800
O709        O  0.77262176  0.66794405  0.62844925    -0.79800
O710        O  0.81336904  0.64159272  0.68752544    -0.79900
O711        O  0.83395889  0.68048079  0.64010293    -0.79800
O712        O  0.74895200  0.59465275  0.63934753    -0.79800
O713        O  0.76514653  0.62066954  0.67194396    -0.79900
O714        O  0.81373917  0.69594724  0.60304564    -0.79800
O715        O  0.75225558  0.63718729  0.60255128    -0.79800
O716        O  0.85519148  0.64056905  0.67223789    -0.79900
Co717      Co  0.80923984  0.65910978  0.61265683     1.51500
Co718      Co  0.80276821  0.60676819  0.66971583     1.51700
Co719      Co  0.84440714  0.63879573  0.63274455     1.51600
Co720      Co  0.77654130  0.60371672  0.60866941     1.51500
O721        O  0.80618808  0.62288504  0.63169900    -1.41800
C722        C  0.75132269  0.65948926  0.61640076     1.09800
C723        C  0.83844956  0.64558592  0.69141717     1.09900
C724        C  0.82746991  0.70076678  0.62430527     1.09800
C725        C  0.74605256  0.60606303  0.66276396     1.09800
O726        O  0.67576632  0.58507477  0.83043516    -0.79800
O727        O  0.57489306  0.65319170  0.79170879    -0.79800
O728        O  0.59691976  0.62914464  0.85822086    -0.79900
O729        O  0.61228674  0.56945240  0.79869959    -0.79800
O730        O  0.59573482  0.66903616  0.83852430    -0.79900
O731        O  0.65479022  0.56875572  0.78473045    -0.79800
O732        O  0.57359638  0.60961380  0.80126535    -0.79800
O733        O  0.63714264  0.58632383  0.85331218    -0.79900
C734        C  0.66133661  0.57693706  0.85073647     1.09900
C735        C  0.56116131  0.63195889  0.79777308     1.09700
C736        C  0.58898455  0.65391840  0.85865004     1.09900
C737        C  0.63351027  0.55605234  0.79266970     1.09800
O738        O  0.66385104  0.62340086  0.76016346    -0.79800
O739        O  0.64859727  0.68057852  0.81237164    -0.79900
O740        O  0.67775806  0.62950150  0.84947493    -0.79800
O741        O  0.59629109  0.63303659  0.75095828    -0.79800
O742        O  0.62735836  0.66231097  0.76371708    -0.79900
O743        O  0.68495277  0.64014610  0.80716724    -0.79800
O744        O  0.63491837  0.59286137  0.74711631    -0.79800
O745        O  0.64194052  0.66774460  0.85437445    -0.79900
Co746      Co  0.66731141  0.60648989  0.79593286     1.51500
Co747      Co  0.61370236  0.66332356  0.80145450     1.51700
Co748      Co  0.63672862  0.62684641  0.85006262     1.51600
Co749      Co  0.60582139  0.60252971  0.77748945     1.51500
O750        O  0.62992314  0.62409723  0.80694174    -1.41800
C751        C  0.65685887  0.60639085  0.74235103     1.09800
C752        C  0.65147058  0.68518396  0.83764999     1.09900
C753        C  0.69290903  0.64034735  0.83138768     1.09800
C754        C  0.60997593  0.65468801  0.74640627     1.09800
O755        O  0.91256922  0.83272247  0.66350951    -0.79800
O756        O  0.85990861  0.92649215  0.68465185    -0.79800
O757        O  0.85294979  0.88215714  0.62669558    -0.79900
O758        O  0.92627359  0.88461820  0.71572504    -0.79800
O759        O  0.82785179  0.90454904  0.65746073    -0.79900
O760        O  0.92806002  0.83974471  0.71635033    -0.79800
O761        O  0.88784838  0.92515421  0.71928410    -0.79800
O762        O  0.90331862  0.87447615  0.64936645    -0.79900
C763        C  0.91681542  0.85218195  0.64660241     1.09900
C764        C  0.87644136  0.93841790  0.70029473     1.09700
C765        C  0.83482634  0.89992572  0.63229609     1.09900
C766        C  0.94013872  0.86283428  0.71504727     1.09800
O767        O  0.87389161  0.82111134  0.73434635    -0.79800
O768        O  0.80765355  0.87254558  0.70024579    -0.79900
O769        O  0.86613768  0.83071086  0.64243791    -0.79800
O770        O  0.85494859  0.89028044  0.75554942    -0.79800
O771        O  0.82911595  0.91319381  0.72744102    -0.79900
O772        O  0.86016133  0.81100632  0.68184783    -0.79800
O773        O  0.89650879  0.85305667  0.75651308    -0.79800
O774        O  0.82485573  0.85279310  0.66447212    -0.79900
Co775      Co  0.89208251  0.82823466  0.69934769     1.51500
Co776      Co  0.84197612  0.89244019  0.69517992     1.51700
Co777      Co  0.86438386  0.86788630  0.66022542     1.51600
Co778      Co  0.89013211  0.88666899  0.73355114     1.51500
O779        O  0.87341298  0.86538445  0.70007439    -1.41800
C780        C  0.88462168  0.82992410  0.75596561     1.09800
C781        C  0.80468285  0.85620870  0.68073332     1.09900
C782        C  0.85982410  0.80972175  0.65604379     1.09800
C783        C  0.83381624  0.90482622  0.75123925     1.09800
O784        O  0.83809948  0.66177744  0.92362753    -0.79800
O785        O  0.92423299  0.71358372  0.84915049    -0.79800
O786        O  0.88262731  0.63195552  0.85330060    -0.79900
O787        O  0.89067307  0.71496529  0.93671914    -0.79800
O788        O  0.91335982  0.66269883  0.85241026    -0.79900
O789        O  0.84628533  0.71590777  0.93976651    -0.79800
O790        O  0.92623266  0.71190695  0.89387631    -0.79800
O791        O  0.84547534  0.63598042  0.88696888    -0.79900
C792        C  0.83913884  0.63831971  0.91188704     1.09900
C793        C  0.93823449  0.71279280  0.87089957     1.09700
C794        C  0.90692951  0.63792745  0.84875464     1.09900
C795        C  0.86919625  0.71498101  0.95129762     1.09800
O796        O  0.82537633  0.73324921  0.88766831    -0.79800
O797        O  0.89333998  0.68826154  0.80742177    -0.79900
O798        O  0.82267183  0.66102554  0.84606016    -0.79800
O799        O  0.89479447  0.75237164  0.86456489    -0.79800
O800        O  0.86847141  0.72870506  0.83682832    -0.79900
O801        O  0.80641269  0.68448680  0.88022450    -0.79800
O802        O  0.85830166  0.75636016  0.90692272    -0.79800
O803        O  0.85658556  0.66552924  0.81990805    -0.79900
Co804      Co  0.83363090  0.69856503  0.90529528     1.51500
Co805      Co  0.88767713  0.69484254  0.84605734     1.51700
Co806      Co  0.85889008  0.66275561  0.86128229     1.51600
Co807      Co  0.89123202  0.73114413  0.89958058     1.51500
O808        O  0.87119080  0.69665187  0.88402129    -1.41800
C809        C  0.83520030  0.75577516  0.89494370     1.09800
C810        C  0.87248246  0.67435576  0.80103020     1.09900
C811        C  0.80291617  0.67082539  0.85890601     1.09800
C812        C  0.88171083  0.75028745  0.84232850     1.09800
O813        O  0.65853688  0.90367660  0.82997838    -0.79800
O814        O  0.70965732  0.84355818  0.92442176    -0.79800
O815        O  0.62155229  0.84278818  0.88125192    -0.79900
O816        O  0.70260684  0.92685682  0.88627668    -0.79800
O817        O  0.65561801  0.84405032  0.91087186    -0.79900
O818        O  0.70748497  0.92605097  0.84128122    -0.79800
O819        O  0.70375252  0.88748214  0.92591961    -0.79800
O820        O  0.63970128  0.89472333  0.87040192    -0.79900
C821        C  0.63954003  0.90761782  0.84770867     1.09900
C822        C  0.70683519  0.86514264  0.93840872     1.09700
C823        C  0.62960056  0.84125572  0.90578870     1.09900
C824        C  0.70431300  0.93925919  0.86373700     1.09800
O825        O  0.73403205  0.87335136  0.82912239    -0.79800
O826        O  0.68904636  0.80055547  0.89849503    -0.79900
O827        O  0.64290291  0.85394643  0.83037836    -0.79800
O828        O  0.74929035  0.86125625  0.89595588    -0.79800
O829        O  0.72911014  0.82907018  0.87155166    -0.79900
O830        O  0.68486348  0.85214061  0.81518056    -0.79800
O831        O  0.74952747  0.90280054  0.85880711    -0.79800
O832        O  0.66702111  0.81531885  0.86206236    -0.79900
Co833      Co  0.69645594  0.88745337  0.83070093     1.51500
Co834      Co  0.69261881  0.83757997  0.88822869     1.51700
Co835      Co  0.65561266  0.85696809  0.86923272     1.51600
Co836      Co  0.72388466  0.89344575  0.89085358     1.51500
O837        O  0.69381269  0.87335304  0.86912087    -1.41800
C838        C  0.75223334  0.89011609  0.83606261     1.09800
C839        C  0.67668922  0.79527425  0.87649981     1.09900
C840        C  0.65959778  0.84925659  0.81103098     1.09800
C841        C  0.75046810  0.83845963  0.88312490     1.09800
O842        O  0.32593677  0.83146873  0.59013016    -0.79800
O843        O  0.42381523  0.78860971  0.65760966    -0.79800
O844        O  0.40458724  0.85383871  0.63330351    -0.79900
O845        O  0.38413810  0.79269712  0.57408085    -0.79800
O846        O  0.40439751  0.83648047  0.67432526    -0.79900
O847        O  0.34104911  0.78169037  0.57621604    -0.79800
O848        O  0.42509107  0.79499666  0.61327893    -0.79800
O849        O  0.36573927  0.85186726  0.59119084    -0.79900
C850        C  0.34234665  0.84934489  0.58042029     1.09900
C851        C  0.43762852  0.79221014  0.63568067     1.09700
C852        C  0.41270596  0.85473140  0.65774150     1.09900
C853        C  0.36177719  0.78847482  0.56189586     1.09800
O854        O  0.32983387  0.76319982  0.63262849    -0.79800
O855        O  0.35049243  0.81210763  0.68324416    -0.79900
O856        O  0.32323232  0.85413762  0.63354398    -0.79800
O857        O  0.40073501  0.74761645  0.64087537    -0.79800
O858        O  0.36962569  0.76337680  0.66785703    -0.79900
O859        O  0.31338322  0.81282388  0.64587168    -0.79800
O860        O  0.35941666  0.74534234  0.60429082    -0.79800
O861        O  0.35873159  0.85482468  0.67327660    -0.79900
Co862      Co  0.33040653  0.79756904  0.61320255     1.51500
Co863      Co  0.38522446  0.80009115  0.66811777     1.51700
Co864      Co  0.36447784  0.84987164  0.63175025     1.51600
Co865      Co  0.39087820  0.77352500  0.60912516     1.51500
O866        O  0.36889773  0.80599479  0.62949931    -1.41800
C867        C  0.33815438  0.74262944  0.61967581     1.09800
C868        C  0.34933345  0.83693916  0.68974697     1.09900
C869        C  0.30653218  0.83742547  0.64432527     1.09800
C870        C  0.38637199  0.74468126  0.66254183     1.09800
O871        O  0.30126504  0.59620068  0.80699486    -0.79800
O872        O  0.37457025  0.66107000  0.76265423    -0.79800
O873        O  0.35539595  0.66123572  0.85260405    -0.79900
O874        O  0.36430295  0.59520350  0.74421129    -0.79800
O875        O  0.35169475  0.67491882  0.81078320    -0.79900
O876        O  0.33093111  0.61858994  0.76453397    -0.79800
O877        O  0.40600249  0.63514402  0.74503560    -0.79800
O878        O  0.32080733  0.62812573  0.83244337    -0.79900
C879        C  0.29911127  0.61603640  0.82387519     1.09900
C880        C  0.39223280  0.65733873  0.74425677     1.09700
C881        C  0.34762424  0.67957791  0.83586287     1.09900
C882        C  0.34043963  0.60620063  0.74346208     1.09800
O883        O  0.34692954  0.56547139  0.78511867    -0.79800
O884        O  0.40422344  0.66420992  0.83835358    -0.79900
O885        O  0.34995286  0.60712597  0.87315155    -0.79800
O886        O  0.43027201  0.60749082  0.79130108    -0.79800
O887        O  0.42765160  0.65263329  0.78927211    -0.79900
O888        O  0.34604741  0.58031582  0.83650194    -0.79800
O889        O  0.39157437  0.56664415  0.78983737    -0.79800
O890        O  0.40022973  0.62206394  0.85379919    -0.79900
Co891      Co  0.33957793  0.60330170  0.80101680     1.51500
Co892      Co  0.38837231  0.66149201  0.79985828     1.51700
Co893      Co  0.36224833  0.62167682  0.83980672     1.51600
Co894      Co  0.39682315  0.60196739  0.76984046     1.51500
O895        O  0.37575511  0.62255041  0.80072888    -1.41800
C896        C  0.36956107  0.55294237  0.78867784     1.09800
C897        C  0.41019582  0.64601235  0.85613087     1.09900
C898        C  0.34469982  0.58384252  0.86269523     1.09800
C899        C  0.44160588  0.63076030  0.79237230     1.09800
O900        O  0.18721726  0.69385991  0.61294650    -0.79800
O901        O  0.23867142  0.61253864  0.66494260    -0.79800
O902        O  0.15799632  0.64340749  0.67560196    -0.79900
O903        O  0.25246890  0.63968269  0.60002920    -0.79800
O904        O  0.19099199  0.61649432  0.68837778    -0.79900
O905        O  0.23028287  0.66322846  0.63135924    -0.79800
O906        O  0.26009260  0.59371774  0.63061146    -0.79800
O907        O  0.16015110  0.67353035  0.64314827    -0.79900
C908        C  0.16950522  0.69558793  0.63220390     1.09900
C909        C  0.26024893  0.60254267  0.65527729     1.09700
C910        C  0.17308005  0.63410854  0.69381534     1.09900
C911        C  0.25194669  0.65924653  0.61717388     1.09800
O912        O  0.21141116  0.65689876  0.57513598    -0.79800
O913        O  0.16983971  0.57062120  0.65673926    -0.79900
O914        O  0.12902306  0.63844112  0.61417083    -0.79800
O915        O  0.21725400  0.56672837  0.59739085    -0.79800
O916        O  0.22248987  0.55965660  0.64104252    -0.79900
O917        O  0.16070952  0.65376103  0.58816684    -0.79800
O918        O  0.21088557  0.61262724  0.56815906    -0.79800
O919        O  0.13779187  0.60202206  0.65143379    -0.79900
Co920      Co  0.19486877  0.65564634  0.61308025     1.51500
Co921      Co  0.20469143  0.59251188  0.65902454     1.51700
Co922      Co  0.16061906  0.63177237  0.63761673     1.51600
Co923      Co  0.23231418  0.60397931  0.60043356     1.51500
O924        O  0.19787856  0.61576980  0.62375744    -1.41800
C925        C  0.20978597  0.63656595  0.55880427     1.09800
C926        C  0.14474842  0.57777368  0.65687984     1.09900
C927        C  0.13511359  0.65184098  0.59336391     1.09800
C928        C  0.22101198  0.55047774  0.61683224     1.09800
O929        O  0.17016337  0.91415492  0.66819610    -0.79800
O930        O  0.07407955  0.84577508  0.70579857    -0.79800
O931        O  0.12887781  0.85419812  0.62354451    -0.79900
O932        O  0.11158260  0.93110270  0.71355628    -0.79800
O933        O  0.09458142  0.85032670  0.65322435    -0.79900
O934        O  0.15625659  0.92993373  0.71969934    -0.79800
O935        O  0.07278518  0.89041421  0.70659095    -0.79800
O936        O  0.13076448  0.90483111  0.64831392    -0.79900
C937        C  0.15271623  0.91887045  0.64927664     1.09900
C938        C  0.06020509  0.86778298  0.70663030     1.09700
C939        C  0.10426980  0.84760908  0.62844863     1.09900
C940        C  0.13431656  0.94341720  0.71602623     1.09800
O941        O  0.16800332  0.87508294  0.73929236    -0.79800
O942        O  0.10579476  0.80523923  0.68187244    -0.79900
O943        O  0.17476074  0.86714297  0.64930062    -0.79800
O944        O  0.09880742  0.85888978  0.74989659    -0.79800
O945        O  0.12620907  0.83079453  0.72760988    -0.79900
O946        O  0.18465290  0.85950032  0.69112602    -0.79800
O947        O  0.13568219  0.90011091  0.75782329    -0.79800
O948        O  0.14379274  0.82459003  0.66700852    -0.79900
Co949      Co  0.16788813  0.89346797  0.70441464     1.51500
Co950      Co  0.11271765  0.84223628  0.69138941     1.51700
Co951      Co  0.13464520  0.86615809  0.65950599     1.51600
Co952      Co  0.10577580  0.89444980  0.72952075     1.51500
O953        O  0.13010788  0.87858272  0.69859016    -1.41800
C954        C  0.15764275  0.88619897  0.76007787     1.09800
C955        C  0.12921435  0.80270263  0.67058972     1.09900
C956        C  0.19206903  0.85954623  0.66661777     1.09800
C957        C  0.11303737  0.83696204  0.74934870     1.09800
O958        O  0.19541413  0.67552306  0.89053887    -0.79800
O959        O  0.12092571  0.73398664  0.82498854    -0.79800
O960        O  0.13740626  0.64452017  0.82185767    -0.79900
O961        O  0.14491172  0.74573512  0.89563226    -0.79800
O962        O  0.14014603  0.68702337  0.81128252    -0.79900
O963        O  0.17337348  0.72232503  0.86924053    -0.79800
O964        O  0.10190598  0.75481488  0.86002168    -0.79800
O965        O  0.17693454  0.66430243  0.85155089    -0.79900
C966        C  0.19834138  0.66575539  0.86656152     1.09900
C967        C  0.11306193  0.75568029  0.83636474     1.09700
C968        C  0.14327851  0.66261009  0.80442702     1.09900
C969        C  0.16806122  0.74384881  0.88300436     1.09800
O970        O  0.15506081  0.70238909  0.92191706    -0.79800
O971        O  0.08767504  0.65949988  0.82612827    -0.79900
O972        O  0.15092690  0.61969783  0.87186648    -0.79800
O973        O  0.07076113  0.71169224  0.88642464    -0.79800
O974        O  0.06854820  0.71114754  0.84118353    -0.79900
O975        O  0.14681913  0.65157753  0.90348302    -0.79800
O976        O  0.11053766  0.70281629  0.92285706    -0.79800
O977        O  0.09862857  0.63983165  0.86507767    -0.79900
Co978      Co  0.15862635  0.68714369  0.88353583     1.51500
Co979      Co  0.10540734  0.69778218  0.82814425     1.51700
Co980      Co  0.13648914  0.65473673  0.86183046     1.51600
Co981      Co  0.10795620  0.72622717  0.88984536     1.51500
O982        O  0.12228003  0.69421800  0.86552807    -1.41800
C983        C  0.13276826  0.70135210  0.93556427     1.09800
C984        C  0.08535147  0.63938190  0.84275639     1.09900
C985        C  0.15280698  0.62669617  0.89686196     1.09800
C986        C  0.05702396  0.71149183  0.86468434     1.09800
O987        O  0.31978457  0.87627092  0.80435731    -0.79800
O988        O  0.27550608  0.82840446  0.90591030    -0.79800
O989        O  0.34755539  0.81033733  0.84754465    -0.79900
O990        O  0.24597069  0.90415366  0.85737522    -0.79800
O991        O  0.30775043  0.80858143  0.86766899    -0.79900
O992        O  0.26941242  0.89256755  0.82057018    -0.79800
O993        O  0.24776034  0.85300855  0.88063690    -0.79800
O994        O  0.30785438  0.83672132  0.81995842    -0.79900
C995        C  0.31344131  0.85189406  0.79990678     1.09900
C996        C  0.25255595  0.83108151  0.89339902     1.09700
C997        C  0.32799303  0.79575134  0.85633211     1.09900
C998        C  0.24682067  0.89698904  0.83278686     1.09800
O999        O  0.29541347  0.93309748  0.85399736    -0.79800
O1000       O  0.33542133  0.81992913  0.91462337    -0.79900
O1001       O  0.35901957  0.86629155  0.83535604    -0.79800
O1002       O  0.27411739  0.87717648  0.92652124    -0.79800
O1003       O  0.31767102  0.87149437  0.92207404    -0.79900
O1004       O  0.34515809  0.90808917  0.84490484    -0.79800
O1005       O  0.28089935  0.92586895  0.89617012    -0.79800
O1006       O  0.35519148  0.84907512  0.88661062    -0.79900
Co1007     Co  0.30696154  0.90038968  0.83403902     1.51500
Co1008     Co  0.31256318  0.84329304  0.89244910     1.51700
Co1009     Co  0.32871517  0.84455926  0.85446938     1.51600
Co1010     Co  0.26574090  0.88840388  0.88829081     1.51500
O1011       O  0.30061593  0.87382690  0.86631811    -1.41800
C1012       C  0.28713511  0.94210523  0.87677081     1.09800
C1013       C  0.35740321  0.83138434  0.90581710     1.09900
C1014       C  0.36424074  0.89192953  0.83741795     1.09800
C1015       C  0.29717020  0.87513942  0.93750245     1.09800
O1016       O  0.19129419  0.61487893  0.29850052    -0.79800
O1017       O  0.23986806  0.67623821  0.37555906    -0.79800
O1018       O  0.15058691  0.68012023  0.35838227    -0.79900
O1019       O  0.25193371  0.60447175  0.35887358    -0.79800
O1020       O  0.19299842  0.69131247  0.35487437    -0.79900
O1021       O  0.23434370  0.63211863  0.32822671    -0.79800
O1022       O  0.25572520  0.64230019  0.40000368    -0.79800
O1023       O  0.16898390  0.64871200  0.31953084    -0.79900
C1024       C  0.17730142  0.63673448  0.29736538     1.09900
C1025       C  0.25971206  0.66417506  0.38634109     1.09700
C1026       C  0.16845486  0.69817385  0.35312502     1.09900
C1027       C  0.25391865  0.61700800  0.33618880     1.09800
O1028       O  0.20950596  0.58060584  0.34042449    -0.79800
O1029       O  0.16354842  0.67753036  0.40704891    -0.79900
O1030       O  0.12470644  0.63070295  0.34803120    -0.79800
O1031       O  0.20789000  0.61840065  0.42646461    -0.79800
O1032       O  0.21399409  0.66300247  0.42714064    -0.79900
O1033       O  0.15766830  0.59992981  0.34090405    -0.79800
O1034       O  0.20471136  0.57920396  0.38494454    -0.79800
O1035       O  0.14581759  0.63690472  0.39864836    -0.79900
Co1036     Co  0.19639383  0.61964729  0.33641872     1.51500
Co1037     Co  0.20258054  0.67490519  0.38990538     1.51700
Co1038     Co  0.15996105  0.63954267  0.36047530     1.51600
Co1039     Co  0.22763902  0.61232939  0.39183217     1.51500
O1040       O  0.19885789  0.63685331  0.37359328    -1.41800
C1041       C  0.20756519  0.56661539  0.36223611     1.09800
C1042       C  0.14413381  0.66003232  0.41058703     1.09900
C1043       C  0.13190040  0.60683382  0.34063102     1.09800
C1044       C  0.21001612  0.64064133  0.43969431     1.09800
O1045       O  0.32215802  0.60241573  0.16285052    -0.79800
O1046       O  0.42640810  0.66264571  0.21215295    -0.79800
O1047       O  0.39850257  0.64110210  0.13903079    -0.79900
O1048       O  0.38769522  0.57856201  0.20250037    -0.79800
O1049       O  0.40821859  0.67754884  0.16291936    -0.79900
O1050       O  0.34296658  0.57866087  0.20931457    -0.79800
O1051       O  0.42666635  0.61925535  0.20172861    -0.79800
O1052       O  0.35635945  0.61083786  0.13449353    -0.79900
C1053       C  0.33401160  0.59923266  0.13938165     1.09900
C1054       C  0.43964432  0.64122973  0.20572098     1.09700
C1055       C  0.41276865  0.66218563  0.14182987     1.09900
C1056       C  0.36527618  0.56571970  0.20495477     1.09800
O1057       O  0.33279588  0.62967767  0.24008778    -0.79800
O1058       O  0.35445955  0.69084762  0.18945394    -0.79900
O1059       O  0.32307806  0.65307943  0.15107410    -0.79800
O1060       O  0.40256351  0.64322358  0.25229891    -0.79800
O1061       O  0.37290789  0.67269975  0.23760664    -0.79900
O1062       O  0.31399888  0.65330677  0.19484862    -0.79800
O1063       O  0.36415529  0.60077571  0.25246446    -0.79800
O1064       O  0.36020398  0.68231315  0.14636581    -0.79900
Co1065     Co  0.33112133  0.61777664  0.20175917     1.51500
Co1066     Co  0.38836628  0.67319687  0.20064494     1.51700
Co1067     Co  0.36316248  0.64245661  0.15704045     1.51600
Co1068     Co  0.39385431  0.61192173  0.22469008     1.51500
O1069       O  0.37035137  0.63451202  0.19658759    -1.41800
C1070       C  0.34160238  0.61299146  0.25731566     1.09800
C1071       C  0.35415728  0.69932816  0.16524694     1.09900
C1072       C  0.30644986  0.65805561  0.17080726     1.09800
C1073       C  0.39001326  0.66608541  0.25537444     1.09800
O1074       O  0.40342393  0.85207340  0.34052417    -0.79800
O1075       O  0.34209201  0.78141352  0.42635221    -0.79800
O1076       O  0.36843952  0.84969600  0.41217572    -0.79900
O1077       O  0.42662491  0.80247901  0.39198047    -0.79800
O1078       O  0.32710007  0.83206973  0.41344288    -0.79900
O1079       O  0.42823082  0.80116911  0.34743581    -0.79800
O1080       O  0.38452943  0.79486430  0.42884172    -0.79800
O1081       O  0.38064168  0.88216354  0.36786735    -0.79900
C1082       C  0.40012399  0.87710530  0.35086252     1.09900
C1083       C  0.36226840  0.78899480  0.44087355     1.09700
C1084       C  0.34467843  0.84873093  0.42313964     1.09900
C1085       C  0.44052249  0.80253305  0.37003929     1.09800
O1086       O  0.37986310  0.77132016  0.33014420    -0.79800
O1087       O  0.31446047  0.81575347  0.35809731    -0.79900
O1088       O  0.35639153  0.85426780  0.33084095    -0.79800
O1089       O  0.36561206  0.74748637  0.39637907    -0.79800
O1090       O  0.33269076  0.76335070  0.37032255    -0.79900
O1091       O  0.35564861  0.81383424  0.31602353    -0.79800
O1092       O  0.40757951  0.75461148  0.36022990    -0.79800
O1093       O  0.32651741  0.85704505  0.37070872    -0.79900
Co1094     Co  0.38968490  0.80949277  0.33639346     1.51500
Co1095     Co  0.33120700  0.79821804  0.39007193     1.51700
Co1096     Co  0.36695389  0.84715163  0.37167514     1.51600
Co1097     Co  0.39438492  0.77760934  0.39331674     1.51500
O1098       O  0.36912664  0.80617930  0.37343467    -1.41800
C1099       C  0.39561258  0.75251606  0.33725245     1.09800
C1100       C  0.30884173  0.84106255  0.35993924     1.09900
C1101       C  0.35090123  0.83808180  0.31169682     1.09800
C1102       C  0.34441388  0.74342241  0.38176363     1.09800
O1103       O  0.14160149  0.70182703  0.18538483    -0.79800
O1104       O  0.17393598  0.72838879  0.08758325    -0.79800
O1105       O  0.17624168  0.66007619  0.14518976    -0.79900
O1106       O  0.09664588  0.76273299  0.13360355    -0.79800
O1107       O  0.18528442  0.70116722  0.13338066    -0.79900
O1108       O  0.12215068  0.74721964  0.16589950    -0.79800
O1109       O  0.14595218  0.75996659  0.10503751    -0.79800
O1110       O  0.14239283  0.65857940  0.17414396    -0.79900
C1111       C  0.14662523  0.67747713  0.19163878     1.09900
C1112       C  0.16898335  0.75330184  0.09447780     1.09700
C1113       C  0.19277716  0.67997403  0.14569626     1.09900
C1114       C  0.11009145  0.76684478  0.15500300     1.09800
O1115       O  0.07169231  0.71841874  0.14732901    -0.79800
O1116       O  0.18461764  0.66871882  0.08536283    -0.79900
O1117       O  0.10403938  0.64400933  0.13696592    -0.79800
O1118       O  0.12089341  0.72729926  0.06558310    -0.79800
O1119       O  0.13466751  0.68553320  0.07131224    -0.79900
O1120       O  0.09112556  0.67146742  0.17025911    -0.79800
O1121       O  0.07628663  0.71863244  0.10176512    -0.79800
O1122       O  0.15132540  0.64243102  0.10237097    -0.79900
Co1123     Co  0.10824473  0.70979448  0.16432142     1.51500
Co1124     Co  0.15862915  0.69349096  0.10389111     1.51700
Co1125     Co  0.13729163  0.66613847  0.13377879     1.51600
Co1126     Co  0.11116221  0.73876217  0.10335742     1.51500
O1127       O  0.12767122  0.70688650  0.12667401    -1.41800
C1128       C  0.06185869  0.71547359  0.12329407     1.09800
C1129       C  0.17301221  0.64517408  0.08737073     1.09900
C1130       C  0.08953640  0.64814228  0.15816867     1.09800
C1131       C  0.12769226  0.70464628  0.05552756     1.09800
O1132       O  0.19748044  0.90301697  0.31225801    -0.79800
O1133       O  0.12626025  0.83379167  0.25777860    -0.79800
O1134       O  0.14329365  0.83133532  0.34942446    -0.79900
O1135       O  0.14157835  0.90330433  0.24745631    -0.79800
O1136       O  0.14676913  0.81932929  0.30668547    -0.79900
O1137       O  0.17279335  0.87832656  0.26829921    -0.79800
O1138       O  0.09967421  0.86670017  0.24321173    -0.79800
O1139       O  0.18135095  0.86482545  0.32954905    -0.79900
C1140       C  0.20201017  0.88038272  0.32366124     1.09900
C1141       C  0.11375103  0.84537949  0.23863699     1.09700
C1142       C  0.14834784  0.81309083  0.33158713     1.09900
C1143       C  0.16510528  0.89138927  0.24730909     1.09800
O1144       O  0.15475571  0.92983167  0.28914154    -0.79800
O1145       O  0.09401105  0.83034634  0.33277414    -0.79900
O1146       O  0.15260563  0.88271313  0.37358978    -0.79800
O1147       O  0.07153893  0.88887729  0.28936525    -0.79800
O1148       O  0.07291820  0.84412838  0.28328568    -0.79900
O1149       O  0.15041675  0.91321494  0.34059231    -0.79800
O1150       O  0.11054151  0.92860495  0.29460133    -0.79800
O1151       O  0.10131206  0.87009751  0.35357737    -0.79900
Co1152     Co  0.16073431  0.89255030  0.30439418     1.51500
Co1153     Co  0.11126977  0.83386390  0.29506290     1.51700
Co1154     Co  0.13962926  0.87092309  0.33896851     1.51600
Co1155     Co  0.10684861  0.89593187  0.27098514     1.51500
O1156       O  0.12530791  0.87233531  0.30003627    -1.41800
C1157       C  0.13230960  0.94227216  0.29289465     1.09800
C1158       C  0.08957217  0.84669830  0.35286109     1.09900
C1159       C  0.15418274  0.90746698  0.36599117     1.09800
C1160       C  0.05922801  0.86606841  0.28748338     1.09800
O1161       O  0.34544390  0.91357407  0.15607420    -0.79800
O1162       O  0.29634100  0.84676699  0.07017076    -0.79800
O1163       O  0.36354312  0.87195885  0.09992005    -0.79900
O1164       O  0.29718704  0.93082184  0.11246937    -0.79800
O1165       O  0.34393614  0.83177385  0.09387340    -0.79900
O1166       O  0.29246143  0.92848959  0.15689242    -0.79800
O1167       O  0.29854542  0.89214587  0.07058134    -0.79800
O1168       O  0.38156270  0.88582677  0.15159079    -0.79900
C1169       C  0.37167608  0.90927297  0.15777023     1.09900
C1170       C  0.29903539  0.86958857  0.05753479     1.09700
C1171       C  0.36358962  0.84823955  0.08862812     1.09900
C1172       C  0.29560542  0.94281194  0.13551528     1.09800
O1173       O  0.27213303  0.87482980  0.16919737    -0.79800
O1174       O  0.31527953  0.82081077  0.14520532    -0.79900
O1175       O  0.33874229  0.86536794  0.18009514    -0.79800
O1176       O  0.25209094  0.86372884  0.09358943    -0.79800
O1177       O  0.26755513  0.83426835  0.12233581    -0.79900
O1178       O  0.31265173  0.89731679  0.19876757    -0.79800
O1179       O  0.25153783  0.90048566  0.13869157    -0.79800
O1180       O  0.35813691  0.83310526  0.14286160    -0.79900
Co1181     Co  0.30872650  0.89081234  0.16097809     1.51500
Co1182     Co  0.30550460  0.83530949  0.10918733     1.51700
Co1183     Co  0.34762918  0.87288914  0.13814514     1.51600
Co1184     Co  0.27724970  0.89575065  0.10508833     1.51500
O1185       O  0.30834431  0.87366163  0.12384301    -1.41800
C1186       C  0.25117389  0.88834565  0.16192273     1.09800
C1187       C  0.34016158  0.81527694  0.14904664     1.09900
C1188       C  0.32824026  0.87703910  0.20160678     1.09800
C1189       C  0.25007394  0.84031853  0.10482521     1.09800
O1190       O  0.84106541  0.58686126  0.33709722    -0.79800
O1191       O  0.81732944  0.63438765  0.42726473    -0.79800
O1192       O  0.86075170  0.65211799  0.40427030    -0.79900
O1193       O  0.78707760  0.56907906  0.39991859    -0.79800
O1194       O  0.83042035  0.68506657  0.41230189    -0.79900
O1195       O  0.79267213  0.56301068  0.35496463    -0.79800
O1196       O  0.77755297  0.61492933  0.43346005    -0.79800
O1197       O  0.86600379  0.60259143  0.37077196    -0.79900
C1198       C  0.86385341  0.58747427  0.34980664     1.09900
C1199       C  0.79934501  0.62472005  0.44287336     1.09700
C1200       C  0.85453034  0.67520183  0.41582452     1.09900
C1201       C  0.79148248  0.55354936  0.37942191     1.09800
O1202       O  0.76333650  0.61065347  0.33084023    -0.79800
O1203       O  0.80344797  0.67975193  0.36176070    -0.79900
O1204       O  0.85196445  0.63839165  0.33198840    -0.79800
O1205       O  0.74446815  0.63716483  0.39184572    -0.79800
O1206       O  0.77252773  0.66922548  0.40785547    -0.79900
O1207       O  0.80991544  0.63355687  0.31795826    -0.79800
O1208       O  0.74495378  0.58806596  0.36437629    -0.79800
O1209       O  0.84669250  0.67271416  0.35812168    -0.79900
Co1210     Co  0.80140384  0.60017207  0.33795593     1.51500
Co1211     Co  0.80951411  0.65574163  0.39384061     1.51700
Co1212     Co  0.84115136  0.63407091  0.37170782     1.51600
Co1213     Co  0.76689180  0.60381069  0.39589262     1.51500
O1214       O  0.79986997  0.62151291  0.37416995    -1.41800
C1215       C  0.74338203  0.59772620  0.34049477     1.09800
C1216       C  0.82645485  0.68806496  0.35310725     1.09900
C1217       C  0.83436326  0.64011173  0.31308714     1.09800
C1218       C  0.74877284  0.66136270  0.40020490     1.09800
O1219       O  0.60883548  0.81529076  0.30546245    -0.79800
O1220       O  0.66838478  0.76006071  0.37986308    -0.79800
O1221       O  0.67108920  0.85049088  0.36659410    -0.79900
O1222       O  0.59931955  0.74887498  0.36209045    -0.79800
O1223       O  0.68332040  0.80813079  0.36154195    -0.79900
O1224       O  0.62689172  0.76979785  0.33292300    -0.79800
O1225       O  0.63625973  0.74312886  0.40595347    -0.79800
O1226       O  0.64147980  0.83631269  0.32803719    -0.79900
C1227       C  0.62999609  0.83039977  0.30524149     1.09900
C1228       C  0.65948660  0.74058479  0.39377846     1.09700
C1229       C  0.68879960  0.83301846  0.35881607     1.09900
C1230       C  0.61180419  0.74934033  0.33888354     1.09800
O1231       O  0.57446407  0.79297064  0.34709245    -0.79800
O1232       O  0.67048481  0.83361247  0.41428120    -0.79900
O1233       O  0.62125146  0.87680796  0.35837440    -0.79800
O1234       O  0.60924959  0.78934414  0.43333032    -0.79800
O1235       O  0.65431378  0.78446540  0.43399379    -0.79900
O1236       O  0.59163951  0.84365885  0.35025712    -0.79800
O1237       O  0.57253808  0.79414824  0.39192537    -0.79800
O1238       O  0.63017655  0.85319675  0.40849068    -0.79900
Co1239     Co  0.61319628  0.80661264  0.34329154     1.51500
Co1240     Co  0.66714155  0.79651556  0.39612808     1.51700
Co1241     Co  0.63118080  0.84131927  0.36956571     1.51600
Co1242     Co  0.60549419  0.77108696  0.39736916     1.51500
O1243       O  0.62943655  0.80158238  0.38054129    -1.41800
C1244       C  0.56053707  0.79542584  0.36916949     1.09800
C1245       C  0.65354035  0.85277791  0.41998451     1.09900
C1246       C  0.59784020  0.86941710  0.35006887     1.09800
C1247       C  0.63140371  0.78827766  0.44642986     1.09800
O1248       O  0.68252745  0.64245245  0.19333829    -0.79800
O1249       O  0.62743511  0.66805936  0.23222845    -0.79800
O1250       O  0.63923667  0.67809100  0.17041111    -0.79900
O1251       O  0.63447481  0.59428896  0.25690536    -0.79800
O1252       O  0.60312547  0.69606271  0.19132475    -0.79900
O1253       O  0.66706404  0.62085307  0.24188148    -0.79800
O1254       O  0.60012168  0.63993485  0.25416561    -0.79800
O1255       O  0.67138545  0.64014271  0.15045029    -0.79900
C1256       C  0.68878251  0.64613257  0.16848210     1.09900
C1257       C  0.61369675  0.66246927  0.25365713     1.09700
C1258       C  0.62562110  0.69931634  0.17879697     1.09900
C1259       C  0.65780186  0.60543018  0.26024181     1.09800
O1260       O  0.65305420  0.56901703  0.21406301    -0.79800
O1261       O  0.59080763  0.65180678  0.15919332    -0.79900
O1262       O  0.63217756  0.59866900  0.14376882    -0.79800
O1263       O  0.57069011  0.61187373  0.20853181    -0.79800
O1264       O  0.57390185  0.65589447  0.21276997    -0.79900
O1265       O  0.66986831  0.59079366  0.16640988    -0.79800
O1266       O  0.60779856  0.57025695  0.20998418    -0.79800
O1267       O  0.62190669  0.65111463  0.12566499    -0.79900
Co1268     Co  0.66622505  0.60707700  0.20404772     1.51500
Co1269     Co  0.61145844  0.65875043  0.19637788     1.51700
Co1270     Co  0.63155474  0.63668865  0.16011376     1.51600
Co1271     Co  0.60440531  0.60518355  0.23002774     1.51500
O1272       O  0.62849723  0.62204798  0.19920741    -1.41800
C1273       C  0.63011773  0.55705939  0.20993346     1.09800
C1274       C  0.59729361  0.65534335  0.13354199     1.09900
C1275       C  0.65556565  0.58689864  0.14509138     1.09800
C1276       C  0.55916463  0.63493473  0.20967354     1.09800
O1277       O  0.68907607  0.89137382  0.19832777    -0.79800
O1278       O  0.73872145  0.82760137  0.12586695    -0.79800
O1279       O  0.65462411  0.82662961  0.15291860    -0.79900
O1280       O  0.75561944  0.89732030  0.14243198    -0.79800
O1281       O  0.68962682  0.80608273  0.13403423    -0.79900
O1282       O  0.73347289  0.87079277  0.17109617    -0.79800
O1283       O  0.76089610  0.85836691  0.10226756    -0.79800
O1284       O  0.66129668  0.86007250  0.18042592    -0.79900
C1285       C  0.67178301  0.87209702  0.20146322     1.09900
C1286       C  0.76093320  0.83654134  0.11651058     1.09700
C1287       C  0.66832145  0.80548669  0.14878418     1.09900
C1288       C  0.75456380  0.88503007  0.16537929     1.09800
O1289       O  0.71431778  0.92536679  0.15543675    -0.79800
O1290       O  0.67045974  0.82880566  0.08316467    -0.79900
O1291       O  0.63266886  0.88806319  0.13739016    -0.79800
O1292       O  0.71804342  0.88700064  0.07059574    -0.79800
O1293       O  0.72305635  0.84281309  0.07057650    -0.79900
O1294       O  0.66429485  0.91217257  0.15516442    -0.79800
O1295       O  0.71284889  0.92449423  0.11055380    -0.79800
O1296       O  0.63818570  0.84589354  0.11034899    -0.79900
Co1297     Co  0.69786836  0.88720240  0.16038449     1.51500
Co1298     Co  0.70507364  0.83039192  0.10540598     1.51700
Co1299     Co  0.66196252  0.86192803  0.13805472     1.51600
Co1300     Co  0.73424917  0.89064556  0.10717789     1.51500
O1301       O  0.70026091  0.86981552  0.12263021    -1.41800
C1302       C  0.71374058  0.93796594  0.13254839     1.09800
C1303       C  0.64531650  0.83288309  0.08915920     1.09900
C1304       C  0.63917770  0.90956799  0.14903497     1.09800
C1305       C  0.71843170  0.86464800  0.05765936     1.09800
O1306       O  0.90997155  0.65104437  0.17466670    -0.79800
O1307       O  0.84749352  0.70873590  0.08500924    -0.79800
O1308       O  0.84032995  0.62361384  0.13048845    -0.79900
O1309       O  0.93160207  0.70558831  0.11972984    -0.79800
O1310       O  0.84864937  0.65504729  0.09940209    -0.79900
O1311       O  0.93639480  0.70177280  0.16439820    -0.79800
O1312       O  0.89156954  0.70465177  0.08396166    -0.79800
O1313       O  0.89433863  0.63599772  0.13523718    -0.79900
C1314       C  0.90799475  0.63175314  0.15678557     1.09900
C1315       C  0.86949352  0.70724836  0.07120538     1.09700
C1316       C  0.84051247  0.63053921  0.10549282     1.09900
C1317       C  0.94643972  0.70460098  0.14043311     1.09800
O1318       O  0.88848181  0.72920662  0.18611841    -0.79800
O1319       O  0.80490461  0.68655386  0.11275660    -0.79900
O1320       O  0.85823350  0.64392085  0.18040413    -0.79800
O1321       O  0.86377495  0.74863364  0.11423792    -0.79800
O1322       O  0.83297311  0.72730776  0.13896750    -0.79900
O1323       O  0.86294282  0.68511024  0.19510447    -0.79800
O1324       O  0.90541086  0.75078238  0.15066362    -0.79800
O1325       O  0.82029928  0.67107977  0.15161974    -0.79900
Co1326     Co  0.89830547  0.69169126  0.17755508     1.51500
Co1327     Co  0.84249516  0.69147991  0.12173197     1.51700
Co1328     Co  0.85921239  0.65617957  0.14111971     1.51600
Co1329     Co  0.89704450  0.72482524  0.11853609     1.51500
O1330       O  0.87932211  0.69322434  0.14045374    -1.41800
C1331       C  0.89498045  0.75116535  0.17476438     1.09800
C1332       C  0.79983399  0.67625657  0.13592101     1.09900
C1333       C  0.85638562  0.66104591  0.19966716     1.09800
C1334       C  0.84097338  0.74889764  0.12700302     1.09800
O1335       O  0.88568474  0.80269342  0.31558448    -0.79800
O1336       O  0.82720323  0.89016541  0.27440365    -0.79800
O1337       O  0.81852706  0.84541122  0.33384995    -0.79900
O1338       O  0.89568313  0.86272661  0.25375371    -0.79800
O1339       O  0.80503242  0.88607081  0.32330421    -0.79900
O1340       O  0.86727581  0.83564535  0.27519680    -0.79800
O1341       O  0.86165520  0.90732891  0.25156461    -0.79800
O1342       O  0.84942637  0.81883820  0.33722272    -0.79900
C1343       C  0.86259221  0.79837718  0.32740984     1.09900
C1344       C  0.83695356  0.89852655  0.25216446     1.09700
C1345       C  0.79964799  0.86195506  0.32980167     1.09900
C1346       C  0.88096448  0.84141030  0.25370068     1.09800
O1347       O  0.92356120  0.84353474  0.29410631    -0.79800
O1348       O  0.84233930  0.92330449  0.34716701    -0.79900
O1349       O  0.87544374  0.84999626  0.37482096    -0.79800
O1350       O  0.89647899  0.93262101  0.29564079    -0.79800
O1351       O  0.85265303  0.94027928  0.29356512    -0.79900
O1352       O  0.90875110  0.84484101  0.34639375    -0.79800
O1353       O  0.92705537  0.88799991  0.29645050    -0.79800
O1354       O  0.83746660  0.88453037  0.36902518    -0.79900
Co1355     Co  0.88529528  0.84219498  0.31118714     1.51500
Co1356     Co  0.83675555  0.90647703  0.30975003     1.51700
Co1357     Co  0.85465043  0.85963549  0.34215985     1.51600
Co1358     Co  0.89363319  0.89667764  0.27698328     1.51500
O1359       O  0.87211922  0.88172148  0.31086820    -1.41800
C1360       C  0.93852522  0.86499980  0.29490560     1.09800
C1361       C  0.83627724  0.91038620  0.36906561     1.09900
C1362       C  0.90006353  0.84401923  0.37110054     1.09800
C1363       C  0.87678837  0.94908055  0.29565166     1.09800
O1364       O  0.16968693  0.40835954  0.32623552    -0.79800
O1365       O  0.20674132  0.35463464  0.43070500    -0.79800
O1366       O  0.12993208  0.34587176  0.37261639    -0.79900
O1367       O  0.21246293  0.43493692  0.38492578    -0.79800
O1368       O  0.15598127  0.35603201  0.40756196    -0.79900
O1369       O  0.21947483  0.43184750  0.34039990    -0.79800
O1370       O  0.20454447  0.39887016  0.42623813    -0.79800
O1371       O  0.14775515  0.39860829  0.36504109    -0.79900
C1372       C  0.14885020  0.41117972  0.34232737     1.09900
C1373       C  0.20475312  0.37818989  0.44148693     1.09700
C1374       C  0.13298582  0.34693160  0.39830818     1.09900
C1375       C  0.21573997  0.44630572  0.36196526     1.09800
O1376       O  0.24599213  0.37901690  0.33195588    -0.79800
O1377       O  0.18576661  0.30967035  0.40384302    -0.79900
O1378       O  0.15714449  0.35743188  0.32608590    -0.79800
O1379       O  0.25156051  0.36591539  0.40580226    -0.79800
O1380       O  0.23159458  0.33301780  0.38224919    -0.79900
O1381       O  0.20018462  0.35634277  0.31594578    -0.79800
O1382       O  0.26043442  0.40520087  0.36548917    -0.79800
O1383       O  0.17841017  0.32123778  0.36135170    -0.79900
Co1384     Co  0.20848348  0.39282611  0.33095576     1.51500
Co1385     Co  0.19470708  0.34588349  0.39232339     1.51700
Co1386     Co  0.16483666  0.36181629  0.36577508     1.51600
Co1387     Co  0.23007517  0.39999246  0.39423972     1.51500
O1388       O  0.20215679  0.37987567  0.36993521    -1.41800
C1389       C  0.26509315  0.39166443  0.34352514     1.09800
C1390       C  0.18057101  0.30238183  0.37963091     1.09900
C1391       C  0.17594957  0.35153507  0.30936686     1.09800
C1392       C  0.25095486  0.34107054  0.39724731     1.09800
O1393       O  0.41593466  0.35765245  0.15066963    -0.79800
O1394       O  0.34246316  0.43256911  0.20879987    -0.79800
O1395       O  0.36459107  0.40295877  0.14019650    -0.79900
O1396       O  0.42940159  0.39778182  0.20066857    -0.79800
O1397       O  0.32482354  0.40761247  0.16140839    -0.79900
O1398       O  0.43707335  0.35477689  0.20481957    -0.79800
O1399       O  0.38740959  0.43335507  0.20260636    -0.79800
O1400       O  0.38181295  0.35254481  0.12115371    -0.79900
C1401       C  0.40741768  0.35261894  0.12618884     1.09900
C1402       C  0.36492070  0.44580796  0.20466742     1.09700
C1403       C  0.34029452  0.41264349  0.14094816     1.09900
C1404       C  0.44622369  0.37867363  0.20508872     1.09800
O1405       O  0.38862576  0.33075316  0.22192566    -0.79800
O1406       O  0.31456589  0.35684814  0.18895169    -0.79900
O1407       O  0.36004980  0.32548388  0.16516239    -0.79800
O1408       O  0.36418665  0.40702000  0.25072434    -0.79800
O1409       O  0.33147295  0.37967899  0.23706743    -0.79900
O1410       O  0.39991842  0.31189519  0.17628915    -0.79800
O1411       O  0.40320134  0.36582615  0.24623851    -0.79800
O1412       O  0.32729608  0.35789559  0.14598528    -0.79900
Co1413     Co  0.40040485  0.34964950  0.18906800     1.51500
Co1414     Co  0.33086928  0.39295208  0.19918557     1.51700
Co1415     Co  0.36702559  0.36528658  0.15520954     1.51600
Co1416     Co  0.39413699  0.39939120  0.22241497     1.51500
O1417       O  0.36977319  0.37815999  0.19399239    -1.41800
C1418       C  0.39750113  0.34019784  0.24416698     1.09800
C1419       C  0.31017645  0.35001388  0.16420861     1.09900
C1420       C  0.37657208  0.30604725  0.16853648     1.09800
C1421       C  0.34297855  0.39280984  0.25597226     1.09800
O1422       O  0.37327692  0.19346385  0.31383954    -0.79800
O1423       O  0.32695734  0.22897010  0.41393667    -0.79800
O1424       O  0.33125438  0.16130110  0.35457775    -0.79900
O1425       O  0.38230028  0.26250084  0.34675677    -0.79800
O1426       O  0.31214604  0.19621484  0.37325593    -0.79900
O1427       O  0.41110352  0.23290813  0.32766041    -0.79800
O1428       O  0.34336241  0.25897527  0.38465448    -0.79800
O1429       O  0.35434359  0.15935180  0.33674340    -0.79900
C1430       C  0.35935293  0.17169764  0.31372511     1.09900
C1431       C  0.32688472  0.25305703  0.40360699     1.09700
C1432       C  0.30973034  0.17616419  0.35748701     1.09900
C1433       C  0.39953250  0.25657475  0.32822322     1.09800
O1434       O  0.42235018  0.19866544  0.37658982    -0.79800
O1435       O  0.32709227  0.16560975  0.41885770    -0.79900
O1436       O  0.39898442  0.14861681  0.35644597    -0.79800
O1437       O  0.38107231  0.23852640  0.42402418    -0.79800
O1438       O  0.37548973  0.19403298  0.42238333    -0.79900
O1439       O  0.42266255  0.17516287  0.32775355    -0.79800
O1440       O  0.42213702  0.24261007  0.38297923    -0.79800
O1441       O  0.35456500  0.13670570  0.39626135    -0.79900
Co1442     Co  0.39694732  0.19764215  0.34553960     1.51500
Co1443     Co  0.34477913  0.19491579  0.39617466     1.51700
Co1444     Co  0.36636183  0.17072327  0.37597449     1.51600
Co1445     Co  0.38153935  0.24815204  0.38390596     1.51500
O1446       O  0.36799702  0.21225906  0.36706512    -1.41800
C1447       C  0.43510283  0.22028708  0.38192763     1.09800
C1448       C  0.33561399  0.14077512  0.41468383     1.09900
C1449       C  0.41869913  0.15170844  0.33821804     1.09800
C1450       C  0.38044726  0.21554726  0.43595218     1.09800
O1451       O  0.16774043  0.09681403  0.35395608    -0.79800
O1452       O  0.07604542  0.15500756  0.29405645    -0.79800
O1453       O  0.10122433  0.12919726  0.35721439    -0.79900
O1454       O  0.12241406  0.07397139  0.27595585    -0.79800
O1455       O  0.09470228  0.17063675  0.34198981    -0.79900
O1456       O  0.13681895  0.07315861  0.31745493    -0.79800
O1457       O  0.07959448  0.10984968  0.29373187    -0.79800
O1458       O  0.14926716  0.12482892  0.38471294    -0.79900
C1459       C  0.16270849  0.10329178  0.37917442     1.09900
C1460       C  0.06497253  0.13128734  0.29467431     1.09700
C1461       C  0.08813811  0.15164319  0.35842264     1.09900
C1462       C  0.12862038  0.06061425  0.29689494     1.09800
O1463       O  0.17291107  0.09387358  0.27213329    -0.79800
O1464       O  0.14608956  0.18951282  0.31711498    -0.79900
O1465       O  0.18112867  0.14614309  0.34483195    -0.79800
O1466       O  0.09930394  0.14566263  0.25121054    -0.79800
O1467       O  0.12717605  0.17591594  0.26735783    -0.79900
O1468       O  0.19451867  0.12718429  0.30743081    -0.79800
O1469       O  0.14603145  0.12028883  0.24881308    -0.79800
O1470       O  0.14106633  0.17465370  0.35863732    -0.79900
Co1471     Co  0.16446796  0.10167437  0.31184922     1.51500
Co1472     Co  0.11324780  0.17004362  0.30496359     1.51700
Co1473     Co  0.14078197  0.13442670  0.34790722     1.51600
Co1474     Co  0.11387493  0.11405574  0.27247065     1.51500
O1475       O  0.13380511  0.13276013  0.30671818    -1.41800
C1476       C  0.16841431  0.10819115  0.25121572     1.09800
C1477       C  0.14830670  0.19372795  0.34241609     1.09900
C1478       C  0.19976116  0.14249554  0.32705138     1.09800
C1479       C  0.11126589  0.16833510  0.24875247     1.09800
O1480       O  0.31860352  0.10605027  0.20282727    -0.79800
O1481       O  0.26919498  0.17473537  0.12702483    -0.79800
O1482       O  0.35884032  0.17482688  0.14724567    -0.79900
O1483       O  0.25556331  0.10524002  0.14614479    -0.79800
O1484       O  0.31728558  0.19052698  0.14684834    -0.79900
O1485       O  0.27679932  0.13088051  0.17630615    -0.79800
O1486       O  0.25269551  0.14085358  0.10267461    -0.79800
O1487       O  0.33648552  0.14397779  0.18598478    -0.79900
C1488       C  0.32942456  0.12922165  0.20686528     1.09900
C1489       C  0.25004643  0.16467188  0.11333613     1.09700
C1490       C  0.34239905  0.19448616  0.15044964     1.09900
C1491       C  0.25537266  0.11832389  0.16883840     1.09800
O1492       O  0.29627385  0.07722163  0.16203367    -0.79800
O1493       O  0.34532807  0.17339166  0.09640870    -0.79900
O1494       O  0.38202800  0.12572472  0.15953557    -0.79800
O1495       O  0.29950545  0.11292772  0.07810087    -0.79800
O1496       O  0.29525581  0.15789138  0.07571944    -0.79900
O1497       O  0.34931193  0.09429855  0.15711180    -0.79800
O1498       O  0.30102715  0.07567245  0.11802178    -0.79800
O1499       O  0.36510401  0.13426322  0.10691399    -0.79900
Co1500     Co  0.31259053  0.11500802  0.16567293     1.51500
Co1501     Co  0.30669363  0.17185829  0.11284076     1.51700
Co1502     Co  0.34795349  0.13565998  0.14486046     1.51600
Co1503     Co  0.27951392  0.10990901  0.11230249     1.51500
O1504       O  0.30954639  0.13395670  0.12956829    -1.41800
C1505       C  0.29927982  0.06310615  0.14043042     1.09800
C1506       C  0.36563542  0.15698430  0.09396787     1.09900
C1507       C  0.37471450  0.10080028  0.16107200     1.09800
C1508       C  0.29762836  0.13443415  0.06435224     1.09800
O1509       O  0.09208348  0.34754607  0.14980334    -0.79800
O1510       O  0.12326884  0.30509544  0.06827702    -0.79800
O1511       O  0.17085043  0.36000296  0.12714850    -0.79900
O1512       O  0.07507843  0.27713208  0.10083857    -0.79800
O1513       O  0.14668367  0.34940114  0.09140716    -0.79900
O1514       O  0.06534327  0.30129333  0.13764992    -0.79800
O1515       O  0.11550007  0.26183499  0.07250027    -0.79800
O1516       O  0.13170307  0.36107010  0.16505376    -0.79900
C1517       C  0.10646452  0.36566728  0.16099393     1.09900
C1518       C  0.11681273  0.28264945  0.05713403     1.09700
C1519       C  0.16174300  0.36629581  0.10399917     1.09900
C1520       C  0.05802007  0.29015781  0.11547855     1.09800
O1521       O  0.10233345  0.27105731  0.17362607    -0.79800
O1522       O  0.19324962  0.31542666  0.11022799    -0.79900
O1523       O  0.16466971  0.31928455  0.18208163    -0.79800
O1524       O  0.14233806  0.24395132  0.11810799    -0.79800
O1525       O  0.16810844  0.26965995  0.09151018    -0.79900
O1526       O  0.12163548  0.31827554  0.19381585    -0.79800
O1527       O  0.09375209  0.24403126  0.13881472    -0.79800
O1528       O  0.18502852  0.30804307  0.15265038    -0.79900
Co1529     Co  0.09851484  0.30906485  0.15982495     1.51500
Co1530     Co  0.15483852  0.30943220  0.09333821     1.51700
Co1531     Co  0.15256047  0.32996694  0.14725967     1.51600
Co1532     Co  0.11250187  0.26922708  0.11307349     1.51500
O1533       O  0.12815665  0.30468303  0.12780176    -1.41800
C1534       C  0.09549818  0.24781716  0.16435307     1.09800
C1535       C  0.20234065  0.31042949  0.13407159     1.09900
C1536       C  0.14692305  0.31942423  0.20019657     1.09800
C1537       C  0.16444875  0.24763489  0.10518352     1.09800
O1538       O  0.62383086  0.30544836  0.17503021    -0.79800
O1539       O  0.67563944  0.40820762  0.21839434    -0.79800
O1540       O  0.68360337  0.35518248  0.14073115    -0.79900
O1541       O  0.60992969  0.35211202  0.25545318    -0.79800
O1542       O  0.69115469  0.36840072  0.18276919    -0.79900
O1543       O  0.60552609  0.31728236  0.22669524    -0.79800
O1544       O  0.65808630  0.37932161  0.24773441    -0.79800
O1545       O  0.66377967  0.32349533  0.18149003    -0.79900
C1546       C  0.64945863  0.30247334  0.17738222     1.09900
C1547       C  0.67687827  0.39597928  0.24121625     1.09700
C1548       C  0.70064322  0.35939902  0.15965653     1.09900
C1549       C  0.60685781  0.32697933  0.25074281     1.09800
O1550       O  0.56805665  0.35666846  0.20527938    -0.79800
O1551       O  0.67947642  0.41797261  0.16363027    -0.79900
O1552       O  0.62911355  0.34147968  0.13574692    -0.79800
O1553       O  0.62729110  0.42483899  0.22806730    -0.79800
O1554       O  0.62845949  0.42342193  0.18418744    -0.79900
O1555       O  0.58972792  0.35038946  0.15486421    -0.79800
O1556       O  0.58085201  0.39415480  0.22770872    -0.79800
O1557       O  0.64706598  0.39575700  0.14232362    -0.79900
Co1558     Co  0.59939891  0.33538412  0.19096257     1.51500
Co1559     Co  0.65711565  0.39385659  0.18434341     1.51700
Co1560     Co  0.65305870  0.35967949  0.16461407     1.51600
Co1561     Co  0.61984437  0.38567364  0.23606250     1.51500
O1562       O  0.62792098  0.36680262  0.19794272    -1.41800
C1563       C  0.56266499  0.37914872  0.21703406     1.09800
C1564       C  0.66523588  0.41520929  0.14230268     1.09900
C1565       C  0.60321055  0.34388876  0.13369109     1.09800
C1566       C  0.62679118  0.43743416  0.20576920     1.09800
O1567       O  0.58358720  0.15847395  0.33132762    -0.79800
O1568       O  0.65264513  0.20421215  0.42630065    -0.79800
O1569       O  0.65277205  0.12657133  0.37893532    -0.79900
O1570       O  0.56771537  0.20878755  0.39428187    -0.79800
O1571       O  0.64398160  0.15560009  0.41032016    -0.79900
O1572       O  0.56349582  0.20897153  0.34931016    -0.79800
O1573       O  0.60837552  0.20216152  0.42773779    -0.79800
O1574       O  0.60563054  0.13479297  0.36272083    -0.79900
C1575       C  0.58724973  0.13644610  0.34485158     1.09900
C1576       C  0.63052380  0.20200487  0.44023160     1.09700
C1577       C  0.65067755  0.13160469  0.40376099     1.09900
C1578       C  0.55304535  0.20946165  0.37334642     1.09800
O1579       O  0.61559247  0.23302248  0.33076075    -0.79800
O1580       O  0.69271324  0.17950897  0.39191685    -0.79900
O1581       O  0.63701678  0.14488086  0.31960475    -0.79800
O1582       O  0.64121133  0.24537347  0.39852784    -0.79800
O1583       O  0.66681267  0.22190927  0.36966780    -0.79900
O1584       O  0.63241507  0.18729275  0.30945782    -0.79800
O1585       O  0.59454456  0.25215139  0.36536578    -0.79800
O1586       O  0.67947155  0.16567889  0.35104566    -0.79900
Co1587     Co  0.60013758  0.19670584  0.33322081     1.51500
Co1588     Co  0.65481399  0.18813437  0.38752752     1.51700
Co1589     Co  0.63833014  0.15690814  0.35775369     1.51600
Co1590     Co  0.60427143  0.22477310  0.39499323     1.51500
O1591       O  0.61834567  0.19213577  0.37110098    -1.41800
C1592       C  0.60307043  0.25292958  0.34079635     1.09800
C1593       C  0.69903552  0.17169218  0.36774630     1.09900
C1594       C  0.63741086  0.16309581  0.30192001     1.09800
C1595       C  0.66328707  0.24302002  0.38418651     1.09800
O1596       O  0.82190974  0.36460409  0.30874053    -0.79800
O1597       O  0.76950428  0.32843195  0.40932392    -0.79800
O1598       O  0.80966543  0.31519882  0.34519320    -0.79900
O1599       O  0.76003162  0.37755598  0.33503058    -0.79800
O1600       O  0.81599780  0.30745778  0.38870997    -0.79900
O1601       O  0.78808823  0.40928365  0.32212542    -0.79800
O1602       O  0.74967960  0.34320779  0.37261666    -0.79800
O1603       O  0.85465796  0.33488334  0.31843694    -0.79900
C1604       C  0.84045102  0.34696038  0.30076880     1.09900
C1605       C  0.75130792  0.32557172  0.39080900     1.09700
C1606       C  0.81152132  0.29834495  0.36478986     1.09900
C1607       C  0.76525923  0.39711743  0.31946095     1.09800
O1608       O  0.81804945  0.42155921  0.37072307    -0.79800
O1609       O  0.84801573  0.35519850  0.40669438    -0.79900
O1610       O  0.86273350  0.38057826  0.34819802    -0.79800
O1611       O  0.76067636  0.38115336  0.41769527    -0.79800
O1612       O  0.80389489  0.37806696  0.42615855    -0.79900
O1613       O  0.84508429  0.41288377  0.32253428    -0.79800
O1614       O  0.77302534  0.42035140  0.37537365    -0.79800
O1615       O  0.85912138  0.32988571  0.37231998    -0.79900
Co1616     Co  0.81977657  0.39169511  0.34286964     1.51500
Co1617     Co  0.80919222  0.34409987  0.40593835     1.51700
Co1618     Co  0.83290156  0.34868311  0.34724614     1.51600
Co1619     Co  0.76351005  0.37998459  0.37489044     1.51500
O1620       O  0.80312367  0.36574104  0.37104613    -1.41800
C1621       C  0.79545339  0.43379032  0.37554763     1.09800
C1622       C  0.86507195  0.33934570  0.39560713     1.09900
C1623       C  0.86610596  0.40194031  0.33274480     1.09800
C1624       C  0.78025304  0.38171606  0.43499701     1.09800
O1625       O  0.67274267  0.07432125  0.14719811    -0.79800
O1626       O  0.68191501  0.12725101  0.07847161    -0.79800
O1627       O  0.63425597  0.15324975  0.11353439    -0.79900
O1628       O  0.72520106  0.07178686  0.10269396    -0.79800
O1629       O  0.66489455  0.17816723  0.09099932    -0.79900
O1630       O  0.72808998  0.06442931  0.14609378    -0.79800
O1631       O  0.72503829  0.11814290  0.07020400    -0.79800
O1632       O  0.64324551  0.10805662  0.14528768    -0.79900
C1633       C  0.64884146  0.08340279  0.15104275     1.09900
C1634       C  0.70107676  0.12215849  0.06146227     1.09700
C1635       C  0.63979942  0.17195310  0.09610752     1.09900
C1636       C  0.72582348  0.05518549  0.12239916     1.09800
O1637       O  0.73738745  0.11029254  0.17736357    -0.79800
O1638       O  0.70157357  0.18324698  0.13427192    -0.79900
O1639       O  0.66056311  0.14760633  0.16828876    -0.79800
O1640       O  0.75644993  0.14726715  0.11009506    -0.79800
O1641       O  0.72339533  0.16878153  0.08854924    -0.79900
O1642       O  0.68344083  0.11435597  0.18792970    -0.79800
O1643       O  0.76340586  0.10149212  0.14051873    -0.79800
O1644       O  0.66513596  0.17074795  0.15415354    -0.79900
Co1645     Co  0.70504351  0.09345049  0.16211320     1.51500
Co1646     Co  0.69101336  0.15322631  0.10891128     1.51700
Co1647     Co  0.66761042  0.13637396  0.12788246     1.51600
Co1648     Co  0.73999640  0.11027885  0.10751607     1.51500
O1649       O  0.70778865  0.12316030  0.13243982    -1.41800
C1650       C  0.76052320  0.10624474  0.16619104     1.09800
C1651       C  0.68271322  0.18991948  0.15031211     1.09900
C1652       C  0.66790760  0.13451260  0.18989934     1.09800
C1653       C  0.74763904  0.16817105  0.09777843     1.09800
O1654       O  0.91023772  0.17391463  0.33997406    -0.79800
O1655       O  0.87530718  0.08100609  0.31535793    -0.79800
O1656       O  0.85565474  0.09975940  0.35957176    -0.79900
O1657       O  0.93238467  0.11588696  0.28828075    -0.79800
O1658       O  0.82296962  0.08803846  0.33106874    -0.79900
O1659       O  0.93503782  0.16118248  0.29223826    -0.79800
O1660       O  0.89123979  0.07933322  0.27401386    -0.79800
O1661       O  0.90188701  0.13577333  0.36197583    -0.79900
C1662       C  0.91339745  0.15873514  0.36071796     1.09900
C1663       C  0.88424719  0.06729784  0.29540760     1.09700
C1664       C  0.83357330  0.08604934  0.35490492     1.09900
C1665       C  0.94627352  0.13742723  0.29209043     1.09800
O1666       O  0.88588619  0.18205274  0.26378973    -0.79800
O1667       O  0.81880633  0.13992540  0.30786093    -0.79900
O1668       O  0.85880566  0.17290247  0.35272698    -0.79800
O1669       O  0.86553171  0.11981100  0.24478941    -0.79800
O1670       O  0.83643066  0.09906822  0.27353758    -0.79900
O1671       O  0.86106433  0.19154417  0.31209410    -0.79800
O1672       O  0.91295641  0.15112604  0.24676024    -0.79800
O1673       O  0.82962997  0.14233228  0.34993372    -0.79900
Co1674     Co  0.89635918  0.17452100  0.30162917     1.51500
Co1675     Co  0.84850371  0.11169601  0.31055176     1.51700
Co1676     Co  0.86887841  0.13460237  0.34033915     1.51600
Co1677     Co  0.89890597  0.11785563  0.26664861     1.51500
O1678       O  0.87840468  0.13658899  0.29907119    -1.41800
C1679       C  0.90263061  0.17476604  0.24555133     1.09800
C1680       C  0.81156348  0.14621383  0.33202054     1.09900
C1681       C  0.85200590  0.19198045  0.33642358     1.09800
C1682       C  0.84245984  0.10880045  0.24996382     1.09800
O1683       O  0.88196130  0.30572189  0.17926645    -0.79800
O1684       O  0.83182957  0.27459185  0.08211014    -0.79800
O1685       O  0.83174631  0.34589340  0.13877352    -0.79900
O1686       O  0.89397556  0.24524925  0.14401483    -0.79800
O1687       O  0.81863216  0.30750208  0.12159879    -0.79900
O1688       O  0.92376559  0.27612097  0.15810173    -0.79800
O1689       O  0.85096463  0.24372357  0.10904147    -0.79800
O1690       O  0.86123090  0.34283505  0.16813544    -0.79900
C1691       C  0.86698943  0.32566397  0.18623266     1.09900
C1692       C  0.83120427  0.25157923  0.09436585     1.09700
C1693       C  0.81283155  0.32882022  0.13479486     1.09900
C1694       C  0.91277521  0.25258925  0.16006349     1.09800
O1695       O  0.92718054  0.31266728  0.11184538    -0.79800
O1696       O  0.83140496  0.33461628  0.07370751    -0.79900
O1697       O  0.90339280  0.36149321  0.13951808    -0.79800
O1698       O  0.88366091  0.26485265  0.06647355    -0.79800
O1699       O  0.87902211  0.30919002  0.06708790    -0.79900
O1700       O  0.92851608  0.33381196  0.16407793    -0.79800
O1701       O  0.92826782  0.26872133  0.10277006    -0.79800
O1702       O  0.86188897  0.35990777  0.09637646    -0.79900
Co1703     Co  0.90376928  0.30944290  0.14488511     1.51500
Co1704     Co  0.85045590  0.30890034  0.09606622     1.51700
Co1705     Co  0.87053914  0.33648600  0.12945380     1.51600
Co1706     Co  0.88870270  0.25793221  0.10650829     1.51500
O1707       O  0.87443332  0.29366815  0.12321895    -1.41800
C1708       C  0.94019534  0.29186008  0.10325564     1.09800
C1709       C  0.84257699  0.35777151  0.07874977     1.09900
C1710       C  0.92331582  0.35815505  0.15643366     1.09800
C1711       C  0.88164252  0.28717534  0.05376498     1.09800
O1712       O  0.69757048  0.02035286  0.53379954    -0.79800
O1713       O  0.70064200  0.96707540  0.47548600    -0.79800
O1714       O  0.72813670  0.05564200  0.47106634    -0.79900
O1715       O  0.71977183  0.95381443  0.53405429    -0.79800
O1716       O  0.69672532  0.02357085  0.46697814    -0.79900
O1717       O  0.71584267  0.98091535  0.57042587    -0.79800
O1718       O  0.73404527  0.93897227  0.48375148    -0.79800
O1719       O  0.72531802  0.05559479  0.52578511    -0.79900
C1720       C  0.70222543  0.04602648  0.53433769     1.09900
C1721       C  0.70971568  0.94278221  0.47572140     1.09700
C1722       C  0.70386317  0.04850297  0.46529292     1.09900
C1723       C  0.71118582  0.95792504  0.55896708     1.09800
O1724       O  0.76679641  0.97678240  0.54725867    -0.79800
O1725       O  0.74914009  0.02244961  0.43909853    -0.79900
O1726       O  0.78180651  0.03237734  0.52688519    -0.79800
O1727       O  0.78415431  0.97088211  0.48283079    -0.79800
O1728       O  0.75508530  0.96863241  0.44846451    -0.79900
O1729       O  0.75041190  0.02611903  0.55851763    -0.79800
O1730       O  0.77136984  0.93712528  0.52521372    -0.79800
O1731       O  0.78121179  0.03186435  0.46914405    -0.79900
Co1732     Co  0.73033835  0.99666107  0.53732860     1.51500
Co1733     Co  0.72530193  0.99557860  0.45997440     1.51700
Co1734     Co  0.75417793  0.04141111  0.49849112     1.51600
Co1735     Co  0.75293280  0.96595876  0.50858019     1.51500
O1736       O  0.73980098  0.00293472  0.49798061    -1.41800
C1737       C  0.77782002  0.95289941  0.54492922     1.09800
C1738       C  0.77298316  0.03162988  0.44446044     1.09900
C1739       C  0.77431881  0.03431547  0.55170557     1.09800
C1740       C  0.77919736  0.96531934  0.45798715     1.09800
C1741       C  0.82027631  0.06991027  0.37790655    -0.05000
C1742       C  0.82470583  0.07738392  0.40583131    -0.02100
C1743       C  0.80888870  0.06556760  0.42721875     0.02800
C1744       C  0.79006379  0.04413419  0.42170298    -0.05000
C1745       C  0.78753460  0.03490849  0.39415150    -0.02100
C1746       C  0.80201099  0.04802191  0.37250856     0.02800
C1747       C  0.84564645  0.09721431  0.41324127     0.37500
C1748       C  0.77079785  0.01112212  0.38788974     0.37500
C1749       C  0.79889455  0.03791918  0.34472552     0.35900
C1750       C  0.81191235  0.07609122  0.45496368     0.35900
N1751       N  0.79639451  0.02961506  0.32263960    -0.38900
N1752       N  0.81436473  0.08449154  0.47704168    -0.38900
N1753       N  0.75761968  0.99205222  0.38282631    -0.38400
N1754       N  0.86242572  0.11277612  0.41950976    -0.38400
C1755       C  0.91144841  0.19441537  0.22391635    -0.05000
C1756       C  0.91569406  0.18540966  0.19660612    -0.02100
C1757       C  0.92009267  0.20470114  0.17569981     0.02800
C1758       C  0.92019581  0.23304678  0.18189498    -0.05000
C1759       C  0.92099550  0.24163199  0.20950104    -0.02100
C1760       C  0.91619338  0.22239727  0.23051809     0.02800
C1761       C  0.91407758  0.15652010  0.18958406     0.37500
C1762       C  0.92527418  0.27031645  0.21628502     0.37500
C1763       C  0.91632930  0.23150834  0.25888132     0.35900
C1764       C  0.92364175  0.19548292  0.14751545     0.35900
N1765       N  0.91657973  0.23892187  0.28145384    -0.38900
N1766       N  0.92644538  0.18825356  0.12502433    -0.38900
N1767       N  0.92881966  0.29316465  0.22172732    -0.38400
N1768       N  0.91288183  0.13348375  0.18392373    -0.38400
C1769       C  0.78402065  0.10434649  0.18450658    -0.05000
C1770       C  0.80388797  0.12508349  0.18457535    -0.02100
C1771       C  0.82203983  0.12731617  0.20662516     0.02800
C1772       C  0.82227234  0.10700713  0.22740999    -0.05000
C1773       C  0.80321553  0.08510702  0.22614777    -0.02100
C1774       C  0.78400356  0.08402218  0.20491222     0.02800
C1775       C  0.80537843  0.14453040  0.16224448     0.37500
C1776       C  0.80287628  0.06365163  0.24660016     0.37500
C1777       C  0.76421107  0.06176623  0.20396616     0.35900
C1778       C  0.83829964  0.15211211  0.20883899     0.35900
N1779       N  0.74860234  0.04390360  0.20336594    -0.38900
N1780       N  0.85037047  0.17247525  0.21012690    -0.38900
N1781       N  0.80238715  0.04641747  0.26277070    -0.38400
N1782       N  0.80740395  0.15984862  0.14434991    -0.38400
C1783       C  0.76582182  0.19237856  0.09523691    -0.05000
C1784       C  0.77165678  0.20827507  0.11876589    -0.02100
C1785       C  0.79156775  0.22913134  0.11753847     0.02800
C1786       C  0.80662115  0.23369310  0.09313030    -0.05000
C1787       C  0.80038830  0.21826353  0.06937326    -0.02100
C1788       C  0.77956123  0.19803598  0.07029723     0.02800
C1789       C  0.75851873  0.20224200  0.14487351     0.37500
C1790       C  0.81693612  0.22129865  0.04475072     0.37500
C1791       C  0.77348706  0.18181911  0.04608323     0.35900
C1792       C  0.79750274  0.24514667  0.14194496     0.35900
N1793       N  0.76863957  0.16884285  0.02679605    -0.38900
N1794       N  0.80229208  0.25776546  0.16146438    -0.38900
N1795       N  0.83022433  0.22300141  0.02504695    -0.38400
N1796       N  0.74877969  0.19758001  0.16607258    -0.38400
C1797       C  0.84553024  0.34092340  0.27124285    -0.05000
C1798       C  0.85065665  0.31379342  0.26187954    -0.02100
C1799       C  0.85588488  0.30846899  0.23386132     0.02800
C1800       C  0.85807942  0.33039218  0.21514639    -0.05000
C1801       C  0.85379767  0.35757188  0.22475049    -0.02100
C1802       C  0.84854072  0.36274899  0.25264576     0.02800
C1803       C  0.85324778  0.29147041  0.28111366     0.37500
C1804       C  0.85596649  0.38089515  0.20643330     0.37500
C1805       C  0.85099553  0.39078852  0.26228412     0.35900
C1806       C  0.85720996  0.28025265  0.22423046     0.35900
N1807       N  0.85427109  0.41359528  0.26799160    -0.38900
N1808       N  0.85759417  0.25773359  0.21662569    -0.38900
N1809       N  0.85742337  0.39963085  0.19207451    -0.38400
N1810       N  0.85674171  0.27361797  0.29615405    -0.38400
C1811       C  0.81308604  0.26786750  0.35969387    -0.05000
C1812       C  0.80815556  0.25656910  0.33338334    -0.02100
C1813       C  0.81868300  0.23042008  0.32630306     0.02800
C1814       C  0.83375376  0.21507069  0.34560794    -0.05000
C1815       C  0.83317473  0.22369695  0.37327232    -0.02100
C1816       C  0.82326664  0.25000299  0.38028495     0.02800
C1817       C  0.79357932  0.27206466  0.31284802     0.37500
C1818       C  0.84454461  0.20659250  0.39461649     0.37500
C1819       C  0.82556737  0.25860076  0.40869284     0.35900
C1820       C  0.81464766  0.21988226  0.29873403     0.35900
N1821       N  0.82811815  0.26466032  0.43147875    -0.38900
N1822       N  0.81158966  0.21178651  0.27663208    -0.38900
N1823       N  0.85364529  0.19328359  0.41183678    -0.38400
N1824       N  0.78240971  0.28404626  0.29588820    -0.38400
C1825       C  0.78332608  0.15632483  0.34052244    -0.05000
C1826       C  0.76276144  0.16291344  0.32124646    -0.02100
C1827       C  0.73601180  0.17064757  0.33026750     0.02800
C1828       C  0.72858040  0.16969860  0.35846792    -0.05000
C1829       C  0.74966126  0.16585731  0.37765729    -0.02100
C1830       C  0.77644272  0.15888169  0.36893770     0.02800
C1831       C  0.76852447  0.16135361  0.29204900     0.37500
C1832       C  0.74455566  0.16955530  0.40681651     0.37500
C1833       C  0.79621348  0.15333072  0.39022242     0.35900
C1834       C  0.71696335  0.18193601  0.31066838     0.35900
N1835       N  0.81121306  0.14897717  0.40786349    -0.38900
N1836       N  0.70205169  0.19152790  0.29511000    -0.38900
N1837       N  0.74182906  0.17286446  0.43017090    -0.38400
N1838       N  0.77271363  0.15996082  0.26868456    -0.38400
C1839       C  0.64475071  0.15608821  0.27330106    -0.05000
C1840       C  0.62827166  0.16481124  0.25135801    -0.02100
C1841       C  0.63520248  0.15742733  0.22407198     0.02800
C1842       C  0.65955998  0.14246682  0.21846622    -0.05000
C1843       C  0.67603328  0.13390846  0.24099119    -0.02100
C1844       C  0.66773971  0.13939061  0.26804903     0.02800
C1845       C  0.60330713  0.18010865  0.25699469     0.37500
C1846       C  0.70246520  0.12044344  0.23718983     0.37500
C1847       C  0.68332872  0.12783270  0.29051696     0.35900
C1848       C  0.61723864  0.16539871  0.20201915     0.35900
N1849       N  0.69573864  0.11827354  0.30815225    -0.38900
N1850       N  0.60286676  0.17186450  0.18447512    -0.38900
N1851       N  0.72355395  0.10966758  0.23515801    -0.38400
N1852       N  0.58330003  0.19215319  0.26153242    -0.38400
C1853       C  0.65851127  0.11110322  0.42420984    -0.05000
C1854       C  0.67763210  0.11841061  0.44437082    -0.02100
C1855       C  0.69167052  0.09799902  0.45857864     0.02800
C1856       C  0.68559408  0.06984971  0.45376225    -0.05000
C1857       C  0.66300117  0.06303004  0.43696255    -0.02100
C1858       C  0.65002493  0.08360310  0.42165114     0.02800
C1859       C  0.68359238  0.14693602  0.45033735     0.37500
C1860       C  0.65186578  0.03548974  0.43639033     0.37500
C1861       C  0.62705191  0.07659203  0.40431664     0.35900
C1862       C  0.71171274  0.10650057  0.47884557     0.35900
N1863       N  0.60842965  0.07047519  0.39110643    -0.38900
N1864       N  0.72759130  0.11348308  0.49492185    -0.38900
N1865       N  0.64200165  0.01392168  0.43636438    -0.38400
N1866       N  0.68847338  0.16944133  0.45602701    -0.38400
C1867       C  0.68633865  0.26338702  0.38611674    -0.05000
C1868       C  0.69981089  0.26857350  0.41120063    -0.02100
C1869       C  0.72029857  0.28914805  0.41325570     0.02800
C1870       C  0.73041757  0.30249945  0.38955719    -0.05000
C1871       C  0.71882986  0.29476714  0.36376553    -0.02100
C1872       C  0.69703211  0.27562543  0.36222251     0.02800
C1873       C  0.69567216  0.25041894  0.43420962     0.37500
C1874       C  0.72864466  0.30674387  0.33831776     0.37500
C1875       C  0.68577951  0.26822513  0.33572007     0.35900
C1876       C  0.72916471  0.29739737  0.44026634     0.35900
N1877       N  0.67691509  0.26226815  0.31459485    -0.38900
N1878       N  0.73476655  0.30348485  0.46244869    -0.38900
N1879       N  0.73587892  0.31660948  0.31798556    -0.38400
N1880       N  0.69427229  0.23581693  0.45275750    -0.38400
C1881       C  0.73002263  0.35297928  0.15487013    -0.05000
C1882       C  0.74100384  0.35644723  0.12825838    -0.02100
C1883       C  0.76695265  0.34608013  0.12143855     0.02800
C1884       C  0.78402433  0.33542788  0.14193966    -0.05000
C1885       C  0.77356899  0.33262807  0.16887419    -0.02100
C1886       C  0.74652262  0.34123332  0.17535763     0.02800
C1887       C  0.72591202  0.37101102  0.10739334     0.37500
C1888       C  0.78932603  0.31845685  0.18928911     0.37500
C1889       C  0.73560582  0.33719199  0.20282248     0.35900
C1890       C  0.77456319  0.34512312  0.09265702     0.35900
N1891       N  0.72703394  0.33402778  0.22478816    -0.38900
N1892       N  0.77787196  0.34475844  0.06914426    -0.38900
N1893       N  0.80064810  0.30635888  0.20601231    -0.38400
N1894       N  0.71466393  0.38234937  0.09009824    -0.38400
C1895       C  0.67929145  0.21936198  0.16016143    -0.05000
C1896       C  0.68427298  0.24117014  0.14162267    -0.02100
C1897       C  0.67748045  0.26858337  0.14874165     0.02800
C1898       C  0.66251540  0.27461752  0.17301633    -0.05000
C1899       C  0.65987202  0.25347175  0.19259775    -0.02100
C1900       C  0.66997246  0.22657565  0.18680156     0.02800
C1901       C  0.69626001  0.23580021  0.11477199     0.37500
C1902       C  0.64877686  0.25980268  0.21954711     0.37500
C1903       C  0.67657678  0.20898018  0.20940148     0.35900
C1904       C  0.68761226  0.29032361  0.13141918     0.35900
N1905       N  0.68360676  0.19681702  0.22832603    -0.38900
N1906       N  0.69762009  0.30626959  0.11702982    -0.38900
N1907       N  0.64026650  0.26452787  0.24128932    -0.38400
N1908       N  0.70593722  0.23202144  0.09333092    -0.38400
C1909       C  0.60406635  0.30883892  0.27494014    -0.05000
C1910       C  0.58336989  0.28864728  0.27598374    -0.02100
C1911       C  0.58110847  0.27150664  0.29902115     0.02800
C1912       C  0.59791545  0.27596593  0.32215556    -0.05000
C1913       C  0.61606842  0.29822840  0.32238351    -0.02100
C1914       C  0.62077477  0.31313230  0.29819829     0.02800
C1915       C  0.56447513  0.28533989  0.25339131     0.37500
C1916       C  0.63055995  0.30516552  0.34727844     0.37500
C1917       C  0.64519984  0.32990692  0.29631305     0.35900
C1918       C  0.56158278  0.24907242  0.29860402     0.35900
N1919       N  0.66556285  0.34200727  0.29505320    -0.38900
N1920       N  0.54559629  0.23155579  0.29771516    -0.38900
N1921       N  0.64164077  0.31114614  0.36729822    -0.38400
N1922       N  0.54931047  0.28289417  0.23544785    -0.38400
C1923       C  0.69957738  0.40185079  0.26102199    -0.05000
C1924       C  0.72694721  0.40637825  0.25199344    -0.02100
C1925       C  0.74862739  0.40796165  0.27116950     0.02800
C1926       C  0.74331315  0.40462755  0.29945705    -0.05000
C1927       C  0.71555765  0.40375782  0.30851868    -0.02100
C1928       C  0.69393174  0.40266595  0.28954107     0.02800
C1929       C  0.73315845  0.40866753  0.22295266     0.37500
C1930       C  0.70909532  0.40375623  0.33767124     0.37500
C1931       C  0.66575546  0.40317247  0.29960633     0.35900
C1932       C  0.77620350  0.41284762  0.26139658     0.35900
N1933       N  0.64333075  0.40371103  0.30767059    -0.38900
N1934       N  0.79767895  0.41760708  0.25240867    -0.38900
N1935       N  0.70394201  0.40361366  0.36087763    -0.38400
N1936       N  0.73827448  0.41074020  0.19984302    -0.38400
C1937       C  0.97074682  0.29351855  0.09846703    -0.05000
C1938       C  0.98631498  0.26971225  0.09166969    -0.02100
C1939       C  0.01499328  0.26910353  0.09589571     0.02800
C1940       C  0.02851138  0.29197980  0.10751853    -0.05000
C1941       C  0.01316628  0.31616198  0.11279600    -0.02100
C1942       C  0.98518564  0.31756272  0.10601590     0.02800
C1943       C  0.97313269  0.24550007  0.08047097     0.37500
C1944       C  0.02512044  0.33928844  0.12714112     0.37500
C1945       C  0.97180535  0.34416195  0.10629078     0.35900
C1946       C  0.02999981  0.24385101  0.09071427     0.35900
N1947       N  0.96171263  0.36562857  0.10592509    -0.38900
N1948       N  0.04200413  0.22371376  0.08676794    -0.38900
N1949       N  0.03343067  0.35766370  0.13961220    -0.38400
N1950       N  0.96276391  0.22611968  0.07152343    -0.38400
C1951       C  0.18594582  0.22547223  0.10566336    -0.05000
C1952       C  0.20766453  0.22430939  0.08614978    -0.02100
C1953       C  0.22911784  0.20503962  0.08920696     0.02800
C1954       C  0.22622515  0.18292695  0.10774342    -0.05000
C1955       C  0.20290435  0.18235970  0.12488921    -0.02100
C1956       C  0.18525800  0.20517473  0.12638150     0.02800
C1957       C  0.20827503  0.24268305  0.06292557     0.37500
C1958       C  0.19601887  0.15820094  0.14038803     0.37500
C1959       C  0.17001486  0.20959727  0.15167697     0.35900
C1960       C  0.25433093  0.20863469  0.07360449     0.35900
N1961       N  0.15930788  0.21360916  0.17258488    -0.38900
N1962       N  0.27427047  0.21214027  0.06102323    -0.38900
N1963       N  0.18837761  0.13901900  0.15192029    -0.38400
N1964       N  0.20851084  0.25704199  0.04414065    -0.38400
C1965       C  0.97662615  0.13495612  0.29290053    -0.05000
C1966       C  0.99272006  0.14857036  0.27306082    -0.02100
C1967       C  0.02128668  0.14470748  0.27209693     0.02800
C1968       C  0.03460583  0.12963612  0.29271360    -0.05000
C1969       C  0.01857148  0.11529317  0.31213820    -0.02100
C1970       C  0.98958183  0.11708774  0.31148315     0.02800
C1971       C  0.98008326  0.16575471  0.25258696     0.37500
C1972       C  0.03177038  0.09935453  0.33317864     0.37500
C1973       C  0.97310233  0.10028255  0.32961579     0.35900
C1974       C  0.03640908  0.15475743  0.24849527     0.35900
N1975       N  0.95983097  0.08631855  0.34347838    -0.38900
N1976       N  0.04696701  0.16241438  0.22864715    -0.44900
N1977       N  0.04215324  0.08671430  0.35015381    -0.38400
N1978       N  0.97103552  0.17972759  0.23590547    -0.38400
C1979       C  0.10370237  0.18713694  0.22640184    -0.05000
C1980       C  0.09124992  0.21245048  0.23296063    -0.02100
C1981       C  0.08502267  0.23110007  0.21200776     0.02800
C1982       C  0.09212526  0.22492047  0.18437922    -0.05000
C1983       C  0.10012877  0.19777269  0.17761246    -0.02100
C1984       C  0.10636783  0.17906882  0.19866751     0.02800
C1985       C  0.08474213  0.21926485  0.26134448     0.37500
C1986       C  0.10340975  0.18933994  0.14922336     0.37500
C1987       C  0.11671322  0.15198245  0.19179115     0.35900
C1988       C  0.07141201  0.25672543  0.21906409     0.35900
N1989       N  0.12495117  0.13037329  0.18626690    -0.38900
N1990       N  0.06059652  0.27711045  0.22486156    -0.38900
N1991       N  0.10600913  0.18258482  0.12656796    -0.38400
N1992       N  0.07966597  0.22458681  0.28398639    -0.38400
C1993       C  0.18957422  0.11099429  0.22926061    -0.05000
C1994       C  0.19049467  0.09277672  0.20675794    -0.02100
C1995       C  0.21161986  0.09498035  0.18672455     0.02800
C1996       C  0.23104445  0.11678189  0.18807628    -0.05000
C1997       C  0.22709027  0.13723857  0.20846056    -0.02100
C1998       C  0.20740153  0.13372036  0.22951802     0.02800
C1999       C  0.16883193  0.07268056  0.20344017     0.37500
C2000       C  0.24071645  0.16350499  0.20606362     0.37500
C2001       C  0.20487248  0.15430151  0.25090673     0.35900
C2002       C  0.21203140  0.07559290  0.16406931     0.35900
N2003       N  0.20322088  0.17100939  0.26773693    -0.38900
N2004       N  0.21209484  0.06012471  0.14598364    -0.38900
N2005       N  0.25042608  0.18500450  0.20388237    -0.38400
N2006       N  0.15139691  0.05683380  0.20064314    -0.38400
C2007       C  0.46558106  0.21954207  0.38358261    -0.05000
C2008       C  0.48155452  0.24019264  0.37078816    -0.02100
C2009       C  0.51020866  0.23716266  0.36826373     0.02800
C2010       C  0.52310572  0.21306681  0.37739287    -0.05000
C2011       C  0.50770506  0.19373903  0.39249583    -0.02100
C2012       C  0.47899830  0.19674917  0.39527919     0.02800
C2013       C  0.46879469  0.26432611  0.35922518     0.37500
C2014       C  0.52137079  0.17052031  0.40486649     0.37500
C2015       C  0.46335315  0.17646296  0.41043306     0.35900
C2016       C  0.52648280  0.25999486  0.35832609     0.35900
N2017       N  0.45084102  0.16032208  0.42254025    -0.38900
N2018       N  0.53875045  0.27897116  0.35111127    -0.38900
N2019       N  0.53233932  0.15198955  0.41459728    -0.38400
N2020       N  0.45912049  0.28377341  0.34992217    -0.38400
C2021       C  0.22822756  0.15386100  0.33031724    -0.05000
C2022       C  0.25134386  0.13895603  0.32007099    -0.02100
C2023       C  0.27783733  0.14494338  0.33010509     0.02800
C2024       C  0.28283682  0.17002350  0.34398084    -0.05000
C2025       C  0.26015413  0.18760056  0.34873899    -0.02100
C2026       C  0.23341753  0.17716752  0.34683601     0.02800
C2027       C  0.24795683  0.11496535  0.30264268     0.37500
C2028       C  0.26366109  0.21619889  0.35613721     0.37500
C2029       C  0.21398811  0.18628739  0.36747928     0.35900
C2030       C  0.29804175  0.12322127  0.32969586     0.35900
N2031       N  0.20018909  0.19246929  0.38592230    -0.38900
N2032       N  0.31295074  0.10480801  0.33031434    -0.38900
N2033       N  0.26622872  0.23927885  0.36105885    -0.38400
N2034       N  0.24541800  0.09587755  0.28868984    -0.38400
C2035       C  0.34857089  0.16044529  0.28757738    -0.05000
C2036       C  0.33593389  0.17770664  0.26835625    -0.02100
C2037       C  0.32851931  0.16735452  0.24234110     0.02800
C2038       C  0.33360336  0.13957991  0.23532577    -0.05000
C2039       C  0.34398427  0.12188932  0.25553630    -0.02100
C2040       C  0.35206825  0.13239114  0.28113277     0.02800
C2041       C  0.33025710  0.20610028  0.27544308     0.37500
C2042       C  0.34697453  0.09273068  0.25030669     0.37500
C2043       C  0.36472592  0.11392084  0.30031410     0.35900
C2044       C  0.31572756  0.18556746  0.22295588     0.35900
N2045       N  0.37384498  0.09792389  0.31498706    -0.38900
N2046       N  0.30614248  0.20083970  0.20776558    -0.38900
N2047       N  0.34923180  0.06929623  0.24740810    -0.38400
N2048       N  0.32568899  0.22871242  0.28117204    -0.38400
C2049       C  0.47572875  0.38362798  0.21131530    -0.05000
C2050       C  0.49203184  0.40156909  0.19532982    -0.02100
C2051       C  0.52070040  0.40321010  0.19969829     0.02800
C2052       C  0.53321410  0.38628208  0.21927187    -0.05000
C2053       C  0.51670075  0.37055327  0.23691583    -0.02100
C2054       C  0.48816967  0.36922807  0.23306884     0.02800
C2055       C  0.47978390  0.41675549  0.17315104     0.37500
C2056       C  0.52931981  0.35523182  0.25889917     0.37500
C2057       C  0.47204907  0.35284239  0.25188422     0.35900
C2058       C  0.53744581  0.42179720  0.18371162     0.35900
N2059       N  0.46053541  0.33957360  0.26780577    -0.38900
N2060       N  0.55067827  0.43685795  0.17101424    -0.38900
N2061       N  0.53920708  0.34323366  0.27662752    -0.38400
N2062       N  0.46998290  0.42871908  0.15534370    -0.38400
C2063       C  0.35262956  0.22255177  0.15473737    -0.05000
C2064       C  0.36308284  0.23064662  0.18023864    -0.02100
C2065       C  0.36723255  0.25858255  0.18565331     0.02800
C2066       C  0.36835926  0.27736161  0.16384028    -0.05000
C2067       C  0.36233085  0.26827157  0.13713088    -0.02100
C2068       C  0.35201869  0.24164779  0.13306013     0.02800
C2069       C  0.37131608  0.21049629  0.20019807     0.37500
C2070       C  0.36791603  0.28561910  0.11371116     0.37500
C2071       C  0.34162580  0.23404903  0.10635326     0.35900
C2072       C  0.36541003  0.26800240  0.21369078     0.35900
N2073       N  0.33324314  0.22884029  0.08484471    -0.38900
N2074       N  0.36182541  0.27469789  0.23620580    -0.38900
N2075       N  0.37304702  0.29870087  0.09464001    -0.38400
N2076       N  0.37918810  0.19459041  0.21574656    -0.38400
C2077       C  0.28501578  0.33329701  0.15682911    -0.05000
C2078       C  0.27940217  0.32563311  0.12927990    -0.02100
C2079       C  0.25298004  0.31632232  0.12167123     0.02800
C2080       C  0.23229579  0.31243541  0.14166944    -0.05000
C2081       C  0.24032856  0.31328164  0.16965983    -0.02100
C2082       C  0.26578838  0.32490305  0.17721871     0.02800
C2083       C  0.30090833  0.32514444  0.10871236     0.37500
C2084       C  0.22338912  0.30102017  0.19096270     0.37500
C2085       C  0.27185739  0.32759761  0.20623033     0.35900
C2086       C  0.24773337  0.30936802  0.09328614     0.35900
N2087       N  0.27642156  0.32965842  0.22938141    -0.38900
N2088       N  0.24402903  0.30358271  0.07061193    -0.38900
N2089       N  0.21067659  0.29085519  0.20831427    -0.38400
N2090       N  0.31734732  0.32329644  0.09156357    -0.38400
C2091       C  0.40327682  0.32025022  0.26669008    -0.05000
C2092       C  0.39914676  0.32717053  0.29445725    -0.02100
C2093       C  0.40105240  0.30673586  0.31475013     0.02800
C2094       C  0.40523103  0.27864082  0.30745458    -0.05000
C2095       C  0.41262356  0.27248971  0.28007834    -0.02100
C2096       C  0.41339320  0.29357899  0.26029966     0.02800
C2097       C  0.39338567  0.35531589  0.30241395     0.37500
C2098       C  0.41820860  0.24445382  0.27169958     0.37500
C2099       C  0.42581212  0.28792812  0.23370666     0.35900
C2100       C  0.39969934  0.31516819  0.34325789     0.35900
N2101       N  0.43629220  0.28310856  0.21283944    -0.38900
N2102       N  0.39909585  0.32240602  0.36585869    -0.38900
N2103       N  0.42245912  0.22207999  0.26486097    -0.38400
N2104       N  0.38914648  0.37776125  0.30900974    -0.38400
C2105       C  0.16981391  0.34207383  0.28149712    -0.05000
C2106       C  0.15465241  0.31784965  0.27704524    -0.02100
C2107       C  0.14929440  0.30907322  0.25016142     0.02800
C2108       C  0.15624326  0.32592701  0.22801725    -0.05000
C2109       C  0.17223883  0.34981516  0.23231908    -0.02100
C2110       C  0.17926249  0.35766721  0.25902589     0.02800
C2111       C  0.14404716  0.30218042  0.29990076     0.37500
C2112       C  0.18118475  0.36667819  0.20941012     0.37500
C2113       C  0.19492760  0.38266820  0.26335344     0.35900
C2114       C  0.13953512  0.28160611  0.24498901     0.35900
N2115       N  0.20738733  0.40259600  0.26664817    -0.38900
N2116       N  0.13319732  0.25920295  0.24065033    -0.38900
N2117       N  0.18856346  0.38001773  0.19123151    -0.38400
N2118       N  0.13480358  0.28976356  0.31787373    -0.38400
C2119       C  0.17685791  0.27295239  0.37206802    -0.05000
C2120       C  0.16264105  0.25492017  0.38975497    -0.02100
C2121       C  0.15240873  0.22975585  0.37985585     0.02800
C2122       C  0.15850140  0.22090512  0.35272457    -0.05000
C2123       C  0.17518314  0.23801440  0.33587450    -0.02100
C2124       C  0.18475518  0.26348090  0.34579006     0.02800
C2125       C  0.15942275  0.26115494  0.41863762     0.37500
C2126       C  0.18207347  0.23039367  0.30787162     0.37500
C2127       C  0.20358430  0.27957702  0.32912096     0.35900
C2128       C  0.13520485  0.21344198  0.39793991     0.35900
N2129       N  0.21877088  0.29212421  0.31580732    -0.38900
N2130       N  0.12159205  0.20080134  0.41274317    -0.38900
N2131       N  0.18738505  0.22527612  0.28525341    -0.38400
N2132       N  0.15733630  0.26441750  0.44204890    -0.38400
C2133       C  0.27128407  0.32029695  0.40674169    -0.05000
C2134       C  0.29971754  0.32506036  0.40512891    -0.02100
C2135       C  0.31807675  0.30326094  0.40990822     0.02800
C2136       C  0.30825741  0.27591632  0.41231236    -0.05000
C2137       C  0.28023153  0.27201142  0.41794415    -0.02100
C2138       C  0.26222914  0.29468182  0.41715194     0.02800
C2139       C  0.31014888  0.35194425  0.39803645     0.37500
C2140       C  0.26952810  0.24497661  0.42387267     0.37500
C2141       C  0.23610606  0.29247908  0.43116919     0.35900
C2142       C  0.34704190  0.30891716  0.41332492     0.35900
N2143       N  0.21646284  0.28981667  0.44438645    -0.38900
N2144       N  0.37003279  0.31331819  0.41704441    -0.38900
N2145       N  0.26030288  0.22359281  0.42832798    -0.38400
N2146       N  0.31854675  0.37338453  0.39237551    -0.38400
C2147       C  0.29216782  0.39173818  0.32882211    -0.05000
C2148       C  0.30176162  0.36691839  0.31703988    -0.02100
C2149       C  0.32013855  0.36723064  0.29451495     0.02800
C2150       C  0.32986169  0.39237393  0.28386851    -0.05000
C2151       C  0.32334811  0.41695973  0.29813965    -0.02100
C2152       C  0.30444726  0.41664356  0.32049727     0.02800
C2153       C  0.29137947  0.34091297  0.32709565     0.37500
C2154       C  0.33384893  0.44293498  0.28833120     0.37500
C2155       C  0.29576933  0.44222941  0.33316140     0.35900
C2156       C  0.32791933  0.34153052  0.28145493     0.35900
N2157       N  0.28886873  0.46268021  0.34322212    -0.38900
N2158       N  0.33383097  0.32096269  0.27103967    -0.38900
N2159       N  0.34196212  0.46385100  0.28069156    -0.38400
N2160       N  0.28311075  0.32013345  0.33496109    -0.38400
C2161       C  0.88167763  0.97892583  0.29509430    -0.05000
C2162       C  0.89304192  0.99285967  0.31774263    -0.02100
C2163       C  0.89327781  0.02185318  0.31847371     0.02800
C2164       C  0.88445145  0.03683233  0.29546455    -0.05000
C2165       C  0.87559913  0.02243610  0.27175323    -0.02100
C2166       C  0.87334174  0.99376632  0.27201298     0.02800
C2167       C  0.90375513  0.97739905  0.34055671     0.37500
C2168       C  0.86850894  0.03680130  0.24681857     0.37500
C2169       C  0.86276746  0.97943161  0.24814354     0.35900
C2170       C  0.90286824  0.03611899  0.34271294     0.35900
N2171       N  0.85428802  0.96816208  0.22909059    -0.38900
N2172       N  0.91031880  0.04745434  0.36216678    -0.38900
N2173       N  0.86334489  0.04791798  0.22664086    -0.38400
N2174       N  0.91220083  0.96511312  0.35883891    -0.38400
C2175       C  0.82576849  0.92451449  0.39482738    -0.05000
C2176       C  0.81171686  0.90902881  0.41551886    -0.02100
C2177       C  0.79825609  0.92238901  0.43755328     0.02800
C2178       C  0.79988185  0.95093451  0.44057310    -0.05000
C2179       C  0.81772177  0.96555466  0.42332828    -0.02100
C2180       C  0.82831479  0.95324074  0.39915272     0.02800
C2181       C  0.80898115  0.87941529  0.41387513     0.37500
C2182       C  0.82832646  0.99167323  0.43244334     0.37500
C2183       C  0.83932557  0.97107105  0.37823960     0.35900
C2184       C  0.78336744  0.90639791  0.45773955     0.35900
N2185       N  0.84667405  0.98628989  0.36165884    -0.38900
N2186       N  0.77225282  0.89286436  0.47372604    -0.38900
N2187       N  0.83845061  0.01161954  0.44033302    -0.38400
N2188       N  0.80654071  0.85584018  0.41293442    -0.38400
C2189       C  0.88988679  0.77708422  0.19132389    -0.05000
C2190       C  0.90902233  0.79884313  0.19216786    -0.02100
C2191       C  0.90578970  0.82062252  0.21153854     0.02800
C2192       C  0.88249890  0.82174463  0.22955821    -0.05000
C2193       C  0.86175966  0.80207468  0.22581505    -0.02100
C2194       C  0.86638621  0.77891559  0.20893730     0.02800
C2195       C  0.93352467  0.79767685  0.17511335     0.37500
C2196       C  0.83492798  0.80618986  0.23831230     0.37500
C2197       C  0.84809955  0.75582773  0.21252576     0.35900
C2198       C  0.92700706  0.84142870  0.21296300     0.35900
N2199       N  0.83435191  0.73703817  0.21694317    -0.38900
N2200       N  0.94391908  0.85805910  0.21389472    -0.38900
N2201       N  0.81323657  0.80988197  0.24745402    -0.38400
N2202       N  0.95335274  0.79707481  0.16186942    -0.38400
C2203       C  0.71638555  0.96821054  0.13031086    -0.05000
C2204       C  0.74121303  0.98104519  0.13755550    -0.02100
C2205       C  0.74534691  0.00910139  0.13203062     0.02800
C2206       C  0.72453202  0.02487115  0.11963087    -0.05000
C2207       C  0.69992670  0.01190042  0.11174228    -0.02100
C2208       C  0.69602609  0.98359818  0.11671849     0.02800
C2209       C  0.76293143  0.96527265  0.15007399     0.37500
C2210       C  0.67802194  0.02792360  0.09990153     0.37500
C2211       C  0.67065275  0.97045708  0.10855780     0.35900
C2212       C  0.77113358  0.02194808  0.13941273     0.35900
N2213       N  0.65039696  0.96002853  0.10202512    -0.38900
N2214       N  0.79170071  0.03215169  0.14530213    -0.38900
N2215       N  0.66044623  0.04066509  0.09056044    -0.38400
N2216       N  0.78044385  0.95292541  0.16001225    -0.38400
C2217       C  0.78575549  0.81914176  0.12127565    -0.05000
C2218       C  0.78651113  0.80304292  0.14525224    -0.02100
C2219       C  0.80267401  0.77917958  0.14615687     0.02800
C2220       C  0.82296791  0.77404415  0.12579332    -0.05000
C2221       C  0.82525437  0.79299333  0.10365290    -0.02100
C2222       C  0.80583490  0.81445175  0.10074883     0.02800
C2223       C  0.77066415  0.81103854  0.16938764     0.37500
C2224       C  0.84632664  0.78976716  0.08264013     0.37500
C2225       C  0.80609783  0.83104508  0.07620391     0.35900
C2226       C  0.79591150  0.75906427  0.16678833     0.35900
N2227       N  0.80638212  0.84424825  0.05658818    -0.38900
N2228       N  0.78871906  0.74306052  0.18267581    -0.38900
N2229       N  0.86316009  0.78738915  0.06587295    -0.38400
N2230       N  0.75853879  0.81734569  0.18894173    -0.38400
C2231       C  0.81761386  0.89892175  0.22799870    -0.05000
C2232       C  0.82503054  0.88898582  0.20165313    -0.02100
C2233       C  0.80474990  0.88490707  0.18109576     0.02800
C2234       C  0.77656212  0.89022490  0.18661160    -0.05000
C2235       C  0.76987582  0.90332557  0.21184108    -0.02100
C2236       C  0.78999164  0.90728683  0.23230837     0.02800
C2237       C  0.85353125  0.88310712  0.19548440     0.37500
C2238       C  0.74326598  0.91602131  0.21599240     0.37500
C2239       C  0.78235503  0.92147251  0.25756559     0.35900
C2240       C  0.81329691  0.87643101  0.15386849     0.35900
N2241       N  0.77621508  0.93289868  0.27757114    -0.38900
N2242       N  0.82075548  0.87044476  0.13206316    -0.38900
N2243       N  0.72306747  0.92777748  0.22046086    -0.38400
N2244       N  0.87631562  0.87877199  0.19016517    -0.38400
C2245       C  0.62918630  0.52669138  0.20814159    -0.05000
C2246       C  0.61760672  0.51306054  0.18540568    -0.02100
C2247       C  0.61752400  0.48402274  0.18387074     0.02800
C2248       C  0.62759994  0.46827438  0.20594661    -0.05000
C2249       C  0.63904728  0.48241638  0.22877860    -0.02100
C2250       C  0.63947987  0.51122181  0.22990478     0.02800
C2251       C  0.60514291  0.52893801  0.16388118     0.37500
C2252       C  0.65161126  0.46790158  0.25121754     0.37500
C2253       C  0.64904616  0.52489058  0.25457463     0.35900
C2254       C  0.60750966  0.47069701  0.15929995     0.35900
N2255       N  0.65633868  0.53519300  0.27462982    -0.38900
N2256       N  0.59989996  0.46031628  0.13938853    -0.38900
N2257       N  0.66185286  0.45732115  0.26959477    -0.38400
N2258       N  0.59458952  0.54160606  0.14704981    -0.38400
C2259       C  0.65796925  0.77921817  0.15981567    -0.05000
C2260       C  0.67592166  0.75701574  0.16429697    -0.02100
C2261       C  0.66539971  0.73179721  0.17316863     0.02800
C2262       C  0.63669949  0.72723135  0.17411843    -0.05000
C2263       C  0.61874724  0.74957244  0.17006204    -0.02100
C2264       C  0.62931935  0.77560094  0.16403391     0.02800
C2265       C  0.70539085  0.75983769  0.16037837     0.37500
C2266       C  0.58916352  0.74635298  0.17142587     0.37500
C2267       C  0.61009040  0.79820798  0.16097317     0.35900
C2268       C  0.68429619  0.71275012  0.18555665     0.35900
N2269       N  0.59493651  0.81631557  0.15873963    -0.38900
N2270       N  0.69999198  0.69978862  0.19747658    -0.38900
N2271       N  0.56546815  0.74523898  0.17239286    -0.38400
N2272       N  0.72885978  0.76169188  0.15708794    -0.38400
C2273       C  0.77108740  0.67030453  0.14504527    -0.05000
C2274       C  0.74819826  0.68241042  0.13199151    -0.02100
C2275       C  0.72123737  0.67392711  0.13881205     0.02800
C2276       C  0.71675247  0.65564766  0.16079452    -0.05000
C2277       C  0.73939384  0.64634820  0.17585974    -0.02100
C2278       C  0.76613350  0.65148854  0.16653112     0.02800
C2279       C  0.75200699  0.70410578  0.11209782     0.37500
C2280       C  0.73570286  0.63148348  0.20134466     0.37500
C2281       C  0.78788444  0.63592267  0.17899441     0.35900
C2282       C  0.69812262  0.68539639  0.12428191     0.35900
N2283       N  0.80378315  0.62270016  0.19025758    -0.38900
N2284       N  0.67976186  0.69470924  0.11271294    -0.38900
N2285       N  0.73339880  0.62028414  0.22204268    -0.38400
N2286       N  0.75498443  0.72158987  0.09642749    -0.38400
C2287       C  0.71632159  0.84112288  0.34864076    -0.05000
C2288       C  0.72675360  0.86740165  0.35504999    -0.02100
C2289       C  0.75394633  0.87398760  0.34878131     0.02800
C2290       C  0.77103694  0.85464396  0.33536298    -0.05000
C2291       C  0.76066241  0.82880970  0.32779712    -0.02100
C2292       C  0.73344620  0.82189678  0.33451537     0.02800
C2293       C  0.71031144  0.88820089  0.36869625     0.37500
C2294       C  0.77768117  0.80941847  0.31261445     0.37500
C2295       C  0.72358933  0.79484733  0.32672832     0.35900
C2296       C  0.76412168  0.90089557  0.35690039     0.35900
N2297       N  0.71622324  0.77310596  0.32066265    -0.38900
N2298       N  0.77134108  0.92260927  0.36318866    -0.38900
N2299       N  0.79092269  0.79360371  0.30065188    -0.38400
N2300       N  0.69854909  0.90600264  0.37917813    -0.38400
C2301       C  0.66385692  0.86209679  0.22919775    -0.05000
C2302       C  0.66767501  0.83426789  0.23621272    -0.02100
C2303       C  0.65691104  0.82389403  0.26113254     0.02800
C2304       C  0.64235404  0.84131361  0.27934619    -0.05000
C2305       C  0.64280534  0.86991955  0.27417331    -0.02100
C2306       C  0.65255014  0.88003252  0.24884466     0.02800
C2307       C  0.68524415  0.81705738  0.21930400     0.37500
C2308       C  0.63623026  0.88972414  0.29538405     0.37500
C2309       C  0.65183697  0.90916317  0.24346475     0.35900
C2310       C  0.66390723  0.79635078  0.26954726     0.35900
N2311       N  0.65170526  0.93250941  0.23968673    -0.38900
N2312       N  0.67025402  0.77459866  0.27634378    -0.38900
N2313       N  0.63272801  0.90726626  0.31108606    -0.38400
N2314       N  0.70000124  0.80331562  0.20659788    -0.38400
C2315       C  0.66377806  0.87616747  0.43738067    -0.05000
C2316       C  0.68170773  0.87083210  0.45946416    -0.02100
C2317       C  0.69538353  0.89249634  0.47309228     0.02800
C2318       C  0.69301151  0.91981745  0.46387201    -0.05000
C2319       C  0.67595967  0.92502448  0.44129830    -0.02100
C2320       C  0.66041376  0.90379911  0.42916710     0.02800
C2321       C  0.68739780  0.84281812  0.46763870     0.37500
C2322       C  0.67748826  0.95143313  0.42764378     0.37500
C2323       C  0.64450691  0.91112097  0.40556497     0.35900
C2324       C  0.71291587  0.88587667  0.49576941     0.35900
N2325       N  0.63409583  0.92041359  0.38662171    -0.38900
N2326       N  0.72709617  0.87906884  0.51326425    -0.38900
N2327       N  0.67943769  0.97201137  0.41614055    -0.38400
N2328       N  0.69256411  0.82065041  0.47413544    -0.38400
C2329       C  0.60785126  0.72686407  0.31758903    -0.05000
C2330       C  0.61513266  0.73223873  0.29028106    -0.02100
C2331       C  0.62194313  0.71077724  0.27236745     0.02800
C2332       C  0.61155124  0.68394183  0.27658641    -0.05000
C2333       C  0.59668373  0.67988955  0.30162940    -0.02100
C2334       C  0.59737227  0.70021658  0.32301377     0.02800
C2335       C  0.60883595  0.75840085  0.27805605     0.37500
C2336       C  0.57943420  0.65598999  0.30508273     0.37500
C2337       C  0.58600040  0.69398146  0.34975883     0.35900
C2338       C  0.64081046  0.71772910  0.25069467     0.35900
N2339       N  0.57681887  0.68896015  0.37110843    -0.38900
N2340       N  0.65686952  0.72524961  0.23497031    -0.38900
N2341       N  0.56529716  0.63710684  0.30775022    -0.38400
N2342       N  0.60258678  0.77782738  0.26616898    -0.38400
C2343       C  0.79358678  0.52322943  0.38341321    -0.05000
C2344       C  0.81697385  0.50932779  0.37395274    -0.02100
C2345       C  0.81589493  0.48119992  0.36809560     0.02800
C2346       C  0.79481092  0.46460572  0.37940724    -0.05000
C2347       C  0.77249455  0.47832152  0.39277885    -0.02100
C2348       C  0.77124933  0.50750494  0.39331526     0.02800
C2349       C  0.84334600  0.52277444  0.37385789     0.37500
C2350       C  0.75015183  0.46280078  0.40490359     0.37500
C2351       C  0.74691185  0.52128751  0.40373863     0.35900
C2352       C  0.83247936  0.47213162  0.34509674     0.35900
N2353       N  0.72745301  0.53229050  0.41201669    -0.38900
N2354       N  0.84515318  0.46756998  0.32542184    -0.38900
N2355       N  0.73228390  0.45042719  0.41456364    -0.38400
N2356       N  0.86507401  0.53207721  0.37556066    -0.38400
C2357       C  0.84971634  0.65369082  0.22799658    -0.05000
C2358       C  0.82619296  0.66513887  0.24075259    -0.02100
C2359       C  0.82231584  0.66278324  0.26917755     0.02800
C2360       C  0.84165463  0.64840758  0.28495459    -0.05000
C2361       C  0.86615146  0.63900786  0.27251987    -0.02100
C2362       C  0.87010573  0.64142155  0.24414667     0.02800
C2363       C  0.80599822  0.67976392  0.22488084     0.37500
C2364       C  0.88872709  0.62940150  0.28886656     0.37500
C2365       C  0.89635960  0.63310531  0.23251020     0.35900
C2366       C  0.79932362  0.67674214  0.28238622     0.35900
N2367       N  0.91802110  0.62635931  0.22524333    -0.38900
N2368       N  0.78119459  0.68822578  0.29280833    -0.38900
N2369       N  0.90802763  0.62367301  0.30108608    -0.38400
N2370       N  0.78941619  0.69143813  0.21283453    -0.38400
C2371       C  0.83073963  0.71588396  0.34072481    -0.05000
C2372       C  0.81610504  0.73869952  0.35145139    -0.02100
C2373       C  0.82654021  0.76556421  0.34772735     0.02800
C2374       C  0.84954591  0.77042254  0.32986051    -0.05000
C2375       C  0.86005233  0.74799195  0.31480535    -0.02100
C2376       C  0.85309005  0.72105000  0.32247860     0.02800
C2377       C  0.79254642  0.73469442  0.36956421     0.37500
C2378       C  0.87866592  0.75227589  0.29179504     0.37500
C2379       C  0.87269260  0.69998848  0.31537203     0.35900
C2380       C  0.81435247  0.78734826  0.36422958     0.35900
N2381       N  0.89030651  0.68482651  0.31051867    -0.38900
N2382       N  0.80420072  0.80414727  0.37777723    -0.38900
N2383       N  0.89315251  0.75567046  0.27317648    -0.38400
N2384       N  0.77384986  0.73186996  0.38411431    -0.38400
C2385       C  0.71896526  0.59353988  0.32265772    -0.05000
C2386       C  0.69285337  0.60379514  0.33023184    -0.02100
C2387       C  0.67177327  0.60576697  0.31048111     0.02800
C2388       C  0.67666009  0.59767261  0.28300181    -0.05000
C2389       C  0.70171728  0.58432227  0.27645323    -0.02100
C2390       C  0.72272503  0.58241230  0.29607094     0.02800
C2391       C  0.68801227  0.61360158  0.35796293     0.37500
C2392       C  0.70590252  0.57200093  0.24958079     0.37500
C2393       C  0.74839685  0.56895220  0.28882427     0.35900
C2394       C  0.64532492  0.61639703  0.31870918     0.35900
N2395       N  0.76877989  0.55809199  0.28301171    -0.38900
N2396       N  0.62440215  0.62442723  0.32665335    -0.38900
N2397       N  0.70966543  0.56181456  0.22838235    -0.38400
N2398       N  0.68390964  0.62142250  0.38006612    -0.38400
C2399       C  0.72507444  0.68084834  0.39951059    -0.05000
C2400       C  0.71198615  0.68589034  0.37433686    -0.02100
C2401       C  0.68874982  0.70320089  0.37315012     0.02800
C2402       C  0.67854503  0.71666864  0.39697833    -0.05000
C2403       C  0.69222313  0.71207554  0.42208706    -0.02100
C2404       C  0.71451933  0.69341484  0.42349531     0.02800
C2405       C  0.72328425  0.67432455  0.34914797     0.37500
C2406       C  0.68602820  0.72871592  0.44599208     0.37500
C2407       C  0.72621047  0.68691123  0.44984967     0.35900
C2408       C  0.67655160  0.70836040  0.34673177     0.35900
N2409       N  0.73479413  0.68171233  0.47120698    -0.38900
N2410       N  0.66777809  0.71212752  0.32516684    -0.38900
N2411       N  0.68289397  0.74191606  0.46554066    -0.38400
N2412       N  0.73218504  0.66536030  0.32892601    -0.38400
C2413       C  0.29733881  0.97357498  0.13755740    -0.05000
C2414       C  0.27931076  0.98843656  0.15510354    -0.02100
C2415       C  0.28166493  0.01725249  0.15793857     0.02800
C2416       C  0.29996258  0.03221958  0.14097428    -0.05000
C2417       C  0.31837222  0.01737951  0.12377022    -0.02100
C2418       C  0.31735810  0.98832286  0.12240302     0.02800
C2419       C  0.25660248  0.97463598  0.16857689     0.37500
C2420       C  0.33969688  0.03189198  0.10882031     0.37500
C2421       C  0.33750420  0.97360630  0.10587721     0.35900
C2422       C  0.26555878  0.03115268  0.17895964     0.35900
N2423       N  0.35363669  0.96187059  0.09276721    -0.38900
N2424       N  0.25325008  0.04172919  0.19646493    -0.38900
N2425       N  0.35690615  0.04345460  0.09716103    -0.38400
N2426       N  0.23778956  0.96435662  0.17888060    -0.38400
C2427       C  0.12944797  0.03034466  0.29630568    -0.05000
C2428       C  0.11382041  0.01487625  0.31515949    -0.02100
C2429       C  0.11529183  0.98599715  0.31464735     0.02800
C2430       C  0.13146118  0.97250172  0.29444259    -0.05000
C2431       C  0.14728386  0.98805649  0.27586566    -0.02100
C2432       C  0.14752328  0.01674202  0.27793373     0.02800
C2433       C  0.09673322  0.02862484  0.33548324     0.37500
C2434       C  0.16287155  0.97479220  0.25396526     0.37500
C2435       C  0.16894487  0.03152027  0.26350960     0.35900
C2436       C  0.10119304  0.97030978  0.33567311     0.35900
N2437       N  0.18741544  0.04170832  0.25252924    -0.38900
N2438       N  0.09021151  0.95783102  0.35263577    -0.38900
N2439       N  0.17509280  0.96460105  0.23617450    -0.38400
N2440       N  0.08315991  0.03942869  0.35187021    -0.38400
C2441       C  0.02827639  0.86533426  0.28928674    -0.05000
C2442       C  0.01280962  0.84346983  0.27765127    -0.02100
C2443       C  0.98382917  0.84251721  0.28070199     0.02800
C2444       C  0.96943558  0.86443391  0.29344615    -0.05000
C2445       C  0.98486278  0.88722350  0.30334596    -0.02100
C2446       C  0.01378422  0.88697345  0.30250848     0.02800
C2447       C  0.02639791  0.82163082  0.26238145     0.37500
C2448       C  0.97143116  0.91135939  0.31503617     0.37500
C2449       C  0.02831291  0.90923432  0.31600255     0.35900
C2450       C  0.96892217  0.81923388  0.26968671     0.35900
N2451       N  0.03955389  0.92712951  0.32677871    -0.38900
N2452       N  0.95710344  0.80059430  0.26096993    -0.38900
N2453       N  0.96098554  0.93062591  0.32439075    -0.38400
N2454       N  0.03699605  0.80400496  0.25031349    -0.38400
C2455       C  0.18536107  0.89483745  0.22391354    -0.05000
C2456       C  0.21219792  0.90414568  0.22931543    -0.02100
C2457       C  0.23292765  0.90341463  0.20875952     0.02800
C2458       C  0.22768723  0.89253383  0.18232795    -0.05000
C2459       C  0.19981174  0.88759271  0.17582589    -0.02100
C2460       C  0.17873176  0.88935908  0.19630237     0.02800
C2461       C  0.21771595  0.91874733  0.25460383     0.37500
C2462       C  0.19219259  0.88215305  0.14794390     0.37500
C2463       C  0.15020895  0.88726538  0.18853721     0.35900
C2464       C  0.25818825  0.91788125  0.21427845     0.35900
N2465       N  0.12751442  0.88642723  0.18184177    -0.38900
N2466       N  0.27662371  0.93143944  0.22038349    -0.38900
N2467       N  0.18469098  0.87858550  0.12587918    -0.38400
N2468       N  0.22319076  0.93206738  0.27344211    -0.38400
C2469       C  0.03205935  0.71101531  0.12123877    -0.05000
C2470       C  0.02080561  0.68630843  0.13077994    -0.02100
C2471       C  0.99378628  0.68574140  0.14095095     0.02800
C2472       C  0.97613296  0.70767642  0.13559124    -0.05000
C2473       C  0.98622949  0.73079286  0.12118003    -0.02100
C2474       C  0.01452990  0.73308996  0.11541102     0.02800
C2475       C  0.03464077  0.66081653  0.12456905     0.37500
C2476       C  0.96767856  0.75228427  0.11260490     0.37500
C2477       C  0.02549723  0.75773971  0.10299074     0.35900
C2478       C  0.98458978  0.66345275  0.15809743     0.35900
N2479       N  0.03419764  0.77735886  0.09291605    -0.38900
N2480       N  0.97742672  0.64680074  0.17332673    -0.38900
N2481       N  0.95280433  0.76917345  0.10533215    -0.38400
N2482       N  0.04441603  0.64022131  0.11777698    -0.38400
C2483       C  0.23011005  0.81831837  0.09595221    -0.05000
C2484       C  0.23830466  0.79031457  0.09577709    -0.02100
C2485       C  0.21889932  0.76917153  0.09125766     0.02800
C2486       C  0.19053555  0.77538090  0.09057668    -0.05000
C2487       C  0.18311628  0.80325151  0.08647410    -0.02100
C2488       C  0.20332204  0.82423095  0.08701211     0.02800
C2489       C  0.26705757  0.78309005  0.09856873     0.37500
C2490       C  0.15501807  0.81035982  0.08015253     0.37500
C2491       C  0.19727138  0.85088024  0.07571155     0.35900
C2492       C  0.22844411  0.74128659  0.08684469     0.35900
N2493       N  0.19257767  0.87191771  0.06597877    -0.38900
N2494       N  0.23618782  0.71913133  0.08308014    -0.38900
N2495       N  0.13258412  0.81605292  0.07510994    -0.38400
N2496       N  0.28997169  0.77732646  0.10072750    -0.38400
C2497       C  0.11191083  0.79389830  0.16842123    -0.05000
C2498       C  0.13743374  0.80168003  0.17931051    -0.02100
C2499       C  0.13844655  0.81979218  0.20160109     0.02800
C2500       C  0.11405726  0.83223389  0.21135390    -0.05000
C2501       C  0.08947136  0.82896440  0.19646025    -0.02100
C2502       C  0.08812218  0.80888260  0.17561665     0.02800
C2503       C  0.16257994  0.78977625  0.16851797     0.37500
C2504       C  0.06513979  0.84471548  0.20363747     0.37500
C2505       C  0.06185185  0.80198960  0.16375353     0.35900
C2506       C  0.16446178  0.82446741  0.21513974     0.35900
N2507       N  0.04062741  0.79668879  0.15473819    -0.38900
N2508       N  0.18528176  0.82774028  0.22587451    -0.38900
N2509       N  0.04581669  0.85752294  0.20908759    -0.38400
N2510       N  0.18269052  0.78042574  0.15988697    -0.38400
C2511       C  0.47134353  0.80125205  0.37006455    -0.05000
C2512       C  0.48540369  0.78384227  0.35111253    -0.02100
C2513       C  0.51434901  0.78286599  0.35016478     0.02800
C2514       C  0.52997153  0.79857426  0.36868740    -0.05000
C2515       C  0.51609841  0.81607881  0.38763584    -0.02100
C2516       C  0.48701005  0.81753648  0.38817384     0.02800
C2517       C  0.47045402  0.76569411  0.33298715     0.37500
C2518       C  0.53172339  0.83332614  0.40612672     0.37500
C2519       C  0.47331768  0.83666628  0.40662838     0.35900
C2520       C  0.52795952  0.76467413  0.33059943     0.35900
N2521       N  0.46245031  0.85206924  0.42125781    -0.38900
N2522       N  0.53874869  0.75026962  0.31491937    -0.38900
N2523       N  0.54417314  0.84705486  0.42090011    -0.38400
N2524       N  0.45955862  0.75079501  0.31814755    -0.38400
C2525       C  0.34462379  0.84771503  0.28350169    -0.05000
C2526       C  0.36613988  0.85781552  0.26667946    -0.02100
C2527       C  0.36099832  0.86622915  0.23956856     0.02800
C2528       C  0.33396617  0.86633141  0.22947960    -0.05000
C2529       C  0.31265278  0.85525560  0.24589805    -0.02100
C2530       C  0.31848029  0.84420975  0.27193080     0.02800
C2531       C  0.39423898  0.85699152  0.27602781     0.37500
C2532       C  0.28499210  0.85338907  0.23545788     0.37500
C2533       C  0.29888748  0.82595243  0.28468058     0.35900
C2534       C  0.38389896  0.87388214  0.22199708     0.35900
N2535       N  0.28351957  0.81007461  0.29330836    -0.38900
N2536       N  0.40283441  0.87921871  0.20855651    -0.38900
N2537       N  0.26280095  0.85118587  0.22755270    -0.38400
N2538       N  0.41702683  0.85594034  0.28228541    -0.38400
C2539       C  0.28195415  0.85156912  0.34952604    -0.05000
C2540       C  0.27819443  0.87966270  0.34330150    -0.02100
C2541       C  0.25217231  0.88953219  0.33536881     0.02800
C2542       C  0.23051681  0.87096148  0.32986348    -0.05000
C2543       C  0.23586813  0.84263168  0.33199208    -0.02100
C2544       C  0.25982442  0.83327925  0.34474018     0.02800
C2545       C  0.30110977  0.89858544  0.34398863     0.37500
C2546       C  0.21868368  0.82287847  0.31796600     0.37500
C2547       C  0.26124172  0.80457028  0.35239552     0.35900
C2548       C  0.24837026  0.91886726  0.33304479     0.35900
N2549       N  0.26215248  0.78167778  0.35840969    -0.38900
N2550       N  0.24664483  0.94244745  0.33145778    -0.38900
N2551       N  0.20616126  0.80680565  0.30586189    -0.38400
N2552       N  0.31927180  0.91383778  0.34396657    -0.38400
C2553       C  0.36579895  0.47654658  0.20470042    -0.05000
C2554       C  0.35487538  0.49150559  0.18290246    -0.02100
C2555       C  0.35049278  0.51982148  0.18574477     0.02800
C2556       C  0.36544450  0.53502789  0.20515375    -0.05000
C2557       C  0.38136872  0.52042460  0.22433901    -0.02100
C2558       C  0.38035723  0.49130647  0.22501974     0.02800
C2559       C  0.35869547  0.48111416  0.15539201     0.37500
C2560       C  0.39782327  0.53527382  0.24406285     0.37500
C2561       C  0.39553543  0.47658346  0.24564049     0.35900
C2562       C  0.32888399  0.53215107  0.17009396     0.35900
N2563       N  0.40779094  0.46480282  0.26198598    -0.38900
N2564       N  0.31018896  0.54085143  0.15864796    -0.38900
N2565       N  0.41106864  0.54716609  0.25968570    -0.38400
N2566       N  0.36385692  0.47427777  0.13318653    -0.38400
C2567       C  0.47039174  0.64138966  0.20523388    -0.05000
C2568       C  0.48507449  0.62411105  0.18682849    -0.02100
C2569       C  0.51393021  0.62181110  0.18843865     0.02800
C2570       C  0.52868781  0.63746490  0.20782485    -0.05000
C2571       C  0.51423869  0.65608614  0.22504424    -0.02100
C2572       C  0.48533450  0.65786901  0.22395411     0.02800
C2573       C  0.47064082  0.60940534  0.16543806     0.37500
C2574       C  0.52893982  0.67313082  0.24450222     0.37500
C2575       C  0.47128507  0.67623579  0.24298026     0.35900
C2576       C  0.52846732  0.60378753  0.16946893     0.35900
N2577       N  0.46068813  0.69112185  0.25830154    -0.38900
N2578       N  0.54003387  0.58934603  0.15441158    -0.38900
N2579       N  0.54046606  0.68700370  0.25989667    -0.38400
N2580       N  0.45908845  0.59782374  0.14829153    -0.38400
C2581       C  0.34717185  0.78686665  0.15699002    -0.05000
C2582       C  0.36621032  0.77176080  0.14106624    -0.02100
C2583       C  0.36522095  0.74300536  0.14064942     0.02800
C2584       C  0.34951880  0.72895577  0.16049073    -0.05000
C2585       C  0.33209340  0.74414453  0.17838162    -0.02100
C2586       C  0.33016311  0.77280324  0.17583742     0.02800
C2587       C  0.38818408  0.78524232  0.12647747     0.37500
C2588       C  0.31456419  0.73025183  0.19814706     0.37500
C2589       C  0.31067940  0.78773543  0.19287748     0.35900
C2590       C  0.37859157  0.72837635  0.11830565     0.35900
N2591       N  0.29479006  0.79914738  0.20650250    -0.38900
N2592       N  0.38799336  0.71716643  0.09948193    -0.38900
N2593       N  0.30049752  0.71927629  0.21387019    -0.38400
N2594       N  0.40716684  0.79483872  0.11596736    -0.38400
C2595       C  0.27719707  0.66546875  0.16652509    -0.05000
C2596       C  0.26942380  0.68940061  0.15269035    -0.02100
C2597       C  0.24155420  0.69662794  0.15130573     0.02800
C2598       C  0.22090989  0.67721335  0.15746662    -0.05000
C2599       C  0.22847671  0.65371476  0.17242863    -0.02100
C2600       C  0.25637289  0.64835369  0.17749907     0.02800
C2601       C  0.28918984  0.70541709  0.13740097     0.37500
C2602       C  0.20780227  0.63572297  0.18420786     0.37500
C2603       C  0.26341922  0.62389573  0.19242205     0.35900
C2604       C  0.23481514  0.72528876  0.14880295     0.35900
N2605       N  0.26832548  0.60412906  0.20426601    -0.38900
N2606       N  0.23042696  0.74855757  0.14860626    -0.38900
N2607       N  0.19169491  0.62103520  0.19371278    -0.38400
N2608       N  0.30382204  0.71800486  0.12355587    -0.38400
C2609       C  0.39775852  0.68767439  0.27617931    -0.05000
C2610       C  0.39690756  0.71571312  0.26858381    -0.02100
C2611       C  0.39959493  0.73650267  0.28849096     0.02800
C2612       C  0.40059387  0.72990863  0.31671810    -0.05000
C2613       C  0.40528917  0.70224751  0.32386612    -0.02100
C2614       C  0.40607937  0.68157733  0.30313694     0.02800
C2615       C  0.39525230  0.72360966  0.23996504     0.37500
C2616       C  0.40864236  0.69485268  0.35229186     0.37500
C2617       C  0.41891239  0.65552531  0.30856503     0.35900
C2618       C  0.40242197  0.76481008  0.27963534     0.35900
N2619       N  0.43047044  0.63521575  0.31245405    -0.38900
N2620       N  0.40496712  0.78729433  0.27262708    -0.38900
N2621       N  0.41108979  0.68888924  0.37504742    -0.38400
N2622       N  0.39415659  0.73039760  0.21732228    -0.38400
C2623       C  0.21071010  0.53578119  0.36142685    -0.05000
C2624       C  0.22373855  0.52185993  0.38315789    -0.02100
C2625       C  0.22615600  0.49291607  0.38288050     0.02800
C2626       C  0.21590411  0.47713530  0.36068781    -0.05000
C2627       C  0.20501804  0.49111271  0.33796385    -0.02100
C2628       C  0.20210494  0.52001210  0.33851287     0.02800
C2629       C  0.23608206  0.53726540  0.40542450     0.37500
C2630       C  0.19520310  0.47580376  0.31435084     0.37500
C2631       C  0.18944956  0.53292872  0.31537297     0.35900
C2632       C  0.24036816  0.47955044  0.40511200     0.35900
N2633       N  0.17937078  0.54186996  0.29608638    -0.38900
N2634       N  0.25174869  0.46888521  0.42282015    -0.38900
N2635       N  0.18721384  0.46386615  0.29549710    -0.38400
N2636       N  0.24608870  0.54947178  0.42309155    -0.38400
C2637       C  0.15212741  0.78400547  0.33910164    -0.05000
C2638       C  0.17141068  0.77617546  0.35883487    -0.02100
C2639       C  0.17630138  0.74811402  0.36370621     0.02800
C2640       C  0.16166386  0.72761678  0.34900410    -0.05000
C2641       C  0.14139000  0.73574976  0.33034352    -0.02100
C2642       C  0.13634330  0.76373065  0.32574377     0.02800
C2643       C  0.18662278  0.79694131  0.37372727     0.37500
C2644       C  0.12631205  0.71584819  0.31453181     0.37500
C2645       C  0.11417771  0.77158564  0.30765920     0.35900
C2646       C  0.19637430  0.74052471  0.38409706     0.35900
N2647       N  0.09639834  0.77764503  0.29337002    -0.38900
N2648       N  0.21247723  0.73459282  0.40028490    -0.38900
N2649       N  0.11324518  0.70148328  0.30105270    -0.38400
N2650       N  0.19868109  0.81352773  0.38564128    -0.38400
C2651       C  0.15450284  0.67084924  0.21997864    -0.05000
C2652       C  0.13425960  0.66177683  0.23841838    -0.02100
C2653       C  0.14163018  0.65168595  0.26414988     0.02800
C2654       C  0.16965421  0.64883067  0.27086326    -0.05000
C2655       C  0.18972465  0.66028650  0.25331402    -0.02100
C2656       C  0.18154021  0.67391304  0.22935618     0.02800
C2657       C  0.10559739  0.66646630  0.23279121     0.37500
C2658       C  0.21859643  0.65842130  0.25976696     0.37500
C2659       C  0.19941329  0.69421390  0.21721837     0.35900
C2660       C  0.11976652  0.64532505  0.28342698     0.35900
N2661       N  0.21347986  0.71145122  0.20896418    -0.38900
N2662       N  0.10074719  0.64183014  0.29736403    -0.38900
N2663       N  0.24179040  0.65655275  0.26420585    -0.38400
N2664       N  0.08252138  0.67099933  0.23028274    -0.38400
C2665       C  0.27807502  0.61149034  0.31776440    -0.05000
C2666       C  0.30534332  0.61574840  0.32663235    -0.02100
C2667       C  0.32754187  0.61362779  0.30769113     0.02800
C2668       C  0.32274773  0.60566625  0.28042181    -0.05000
C2669       C  0.29693665  0.59459341  0.27409291    -0.02100
C2670       C  0.27435659  0.59861388  0.29199944     0.02800
C2671       C  0.31097696  0.62023033  0.35536968     0.37500
C2672       C  0.29473005  0.57578358  0.25112126     0.37500
C2673       C  0.24808940  0.58712479  0.28453188     0.35900
C2674       C  0.35528955  0.61604143  0.31723013     0.35900
N2675       N  0.22787256  0.57697876  0.27754886    -0.38900
N2676       N  0.37703433  0.61651909  0.32636337    -0.38900
N2677       N  0.29287511  0.55969072  0.23370417    -0.38400
N2678       N  0.31627665  0.62270000  0.37830183    -0.38400
C2679       C  0.28714380  0.67759812  0.38334286    -0.05000
C2680       C  0.29407956  0.69036020  0.35815313    -0.02100
C2681       C  0.31576045  0.70932059  0.35671044     0.02800
C2682       C  0.33050012  0.71622556  0.38047539    -0.05000
C2683       C  0.32686641  0.70005624  0.40424742    -0.02100
C2684       C  0.30485381  0.68111300  0.40587772     0.02800
C2685       C  0.27809419  0.68529625  0.33374923     0.37500
C2686       C  0.34483332  0.70369325  0.42746052     0.37500
C2687       C  0.29942791  0.66681671  0.43130940     0.35900
C2688       C  0.32216492  0.72265356  0.33085629     0.35900
N2689       N  0.29519334  0.65540643  0.45163759    -0.38900
N2690       N  0.32711824  0.73329462  0.31025961    -0.38900
N2691       N  0.35935053  0.70637431  0.44590202    -0.38400
N2692       N  0.26550454  0.68196750  0.31405921    -0.38400
C2693       C  0.29883393  0.87341979  0.96815021    -0.05000
C2694       C  0.28081059  0.85566913  0.98258775    -0.02100
C2695       C  0.28162806  0.85383299  0.01143873     0.02800
C2696       C  0.30004665  0.87010352  0.02672642    -0.05000
C2697       C  0.31824845  0.88776853  0.01235987    -0.02100
C2698       C  0.31774764  0.88928192  0.98327156     0.02800
C2699       C  0.26123726  0.83868113  0.96803642     0.37500
C2700       C  0.33826406  0.90368894  0.02740116     0.37500
C2701       C  0.33706764  0.90678033  0.96889241     0.35900
C2702       C  0.26270114  0.83538712  0.02517342     0.35900
N2703       N  0.35267160  0.92052675  0.95737962    -0.38900
N2704       N  0.24746140  0.82025949  0.03528914    -0.38900
N2705       N  0.35429391  0.91634042  0.03940094    -0.38400
N2706       N  0.24514655  0.82486986  0.95747585    -0.38400
C2707       C  0.13244438  0.70050322  0.96630738    -0.05000
C2708       C  0.11456517  0.68273252  0.98098094    -0.02100
C2709       C  0.11285343  0.68390940  0.01007896     0.02800
C2710       C  0.12952326  0.70231486  0.02490822    -0.05000
C2711       C  0.14755809  0.71981617  0.01009242    -0.02100
C2712       C  0.14911589  0.71876711  0.98118775     0.02800
C2713       C  0.09892771  0.66222586  0.96630533     0.37500
C2714       C  0.16502694  0.73922712  0.02409204     0.37500
C2715       C  0.16758633  0.73723558  0.96673207     0.35900
C2716       C  0.09362943  0.66656636  0.02476993     0.35900
N2717       N  0.18240851  0.75191085  0.95534937    -0.38900
N2718       N  0.07819048  0.65290771  0.03660734    -0.38900
N2719       N  0.17963058  0.75537199  0.03339553    -0.38400
N2720       N  0.08671834  0.64549057  0.95477685    -0.38400
C2721       C  0.18966691  0.76621283  0.88619799    -0.05000
C2722       C  0.18222243  0.79430128  0.88651830    -0.02100
C2723       C  0.20240337  0.81525227  0.88915094     0.02800
C2724       C  0.23063758  0.80876926  0.89314377    -0.05000
C2725       C  0.23766401  0.78074132  0.89502543    -0.02100
C2726       C  0.21781733  0.75985457  0.89050325     0.02800
C2727       C  0.15363114  0.80202198  0.88395098     0.37500
C2728       C  0.26540433  0.77289936  0.90210653     0.37500
C2729       C  0.22734093  0.73184263  0.89111982     0.35900
C2730       C  0.19352888  0.84364446  0.88836317     0.35900
N2731       N  0.23759955  0.71052225  0.89190227    -0.38900
N2732       N  0.18634282  0.86623536  0.88753450    -0.38900
N2733       N  0.28720386  0.76618299  0.90838791    -0.38400
N2734       N  0.13087299  0.80852729  0.88237289    -0.38400
C2735       C  0.11401027  0.81816117  0.77401639    -0.05000
C2736       C  0.13236069  0.79556874  0.77411923    -0.02100
C2737       C  0.13629127  0.78044627  0.79810426     0.02800
C2738       C  0.11645964  0.78119123  0.81946603    -0.05000
C2739       C  0.09736190  0.80299357  0.81974537    -0.02100
C2740       C  0.09713838  0.82227661  0.79788801     0.02800
C2741       C  0.14524160  0.78522982  0.74918064     0.37500
C2742       C  0.07763866  0.80541711  0.84207023     0.37500
C2743       C  0.07813093  0.84509704  0.79959017     0.35900
C2744       C  0.16061971  0.76333876  0.80032548     0.35900
N2745       N  0.06288412  0.86325533  0.80108313    -0.38900
N2746       N  0.18000742  0.74980890  0.80223725    -0.38900
N2747       N  0.06187128  0.80745091  0.85987687    -0.38400
N2748       N  0.15529542  0.77624444  0.72950250    -0.38400
C2749       C  0.17426416  0.88524825  0.78544685    -0.05000
C2750       C  0.17564642  0.90815853  0.80324667    -0.02100
C2751       C  0.19915041  0.91207465  0.81952631     0.02800
C2752       C  0.22061389  0.89252357  0.81865864    -0.05000
C2753       C  0.21623116  0.86720071  0.80573011    -0.02100
C2754       C  0.19366294  0.86375319  0.78857246     0.02800
C2755       C  0.15377802  0.92830792  0.80395795     0.37500
C2756       C  0.23462169  0.84432843  0.81064309     0.37500
C2757       C  0.19216588  0.83857499  0.77285477     0.35900
C2758       C  0.20136097  0.93641894  0.83654816     0.35900
N2759       N  0.19289043  0.81837359  0.76042161    -0.38900
N2760       N  0.20283467  0.95580211  0.85024870    -0.38900
N2761       N  0.24875932  0.82582683  0.81487639    -0.38400
N2762       N  0.13628002  0.94435115  0.80463427    -0.38400
C2763       C  0.20896503  0.64052860  0.47034968    -0.05000
C2764       C  0.19633264  0.61849203  0.48449843    -0.02100
C2765       C  0.19411614  0.61908792  0.51321966     0.02800
C2766       C  0.20736571  0.63980440  0.52863100    -0.05000
C2767       C  0.22013428  0.66176480  0.51477051    -0.02100
C2768       C  0.22056727  0.66240462  0.48586667     0.02800
C2769       C  0.18541411  0.59483549  0.46994488     0.37500
C2770       C  0.23295905  0.68387475  0.53006026     0.37500
C2771       C  0.23432392  0.68521456  0.47253788     0.35900
C2772       C  0.17699771  0.59874052  0.52674235     0.35900
N2773       N  0.24531174  0.70349522  0.46214399    -0.38900
N2774       N  0.16306242  0.58269111  0.53730679    -0.38900
N2775       N  0.24282847  0.70177615  0.54212338    -0.38400
N2776       N  0.17674718  0.57588864  0.45854505    -0.38400
C2777       C  0.16882869  0.64229180  0.72251129    -0.05000
C2778       C  0.17032532  0.62261492  0.74355497    -0.02100
C2779       C  0.16589747  0.63068593  0.77076991     0.02800
C2780       C  0.15313871  0.65601895  0.77643239    -0.05000
C2781       C  0.15097233  0.67553026  0.75501877    -0.02100
C2782       C  0.16227831  0.66951086  0.72922007     0.02800
C2783       C  0.17545334  0.59391507  0.73765672     0.37500
C2784       C  0.13668221  0.70143397  0.75856437     0.37500
C2785       C  0.17109134  0.69168377  0.71164042     0.35900
C2786       C  0.17805634  0.61463481  0.79232577     0.35900
N2787       N  0.17971778  0.70977924  0.69902113    -0.38900
N2788       N  0.18934017  0.60220301  0.80888060    -0.38900
N2789       N  0.12483505  0.72189533  0.76081698    -0.38400
N2790       N  0.17904130  0.57085623  0.73335259    -0.38400
C2791       C  0.15944508  0.72273506  0.64277604    -0.05000
C2792       C  0.17524003  0.74656963  0.63858844    -0.02100
C2793       C  0.16483762  0.77246756  0.64625232     0.02800
C2794       C  0.14015088  0.77498783  0.66198078    -0.05000
C2795       C  0.12576540  0.75058455  0.66877736    -0.02100
C2796       C  0.13457956  0.72495867  0.65826348     0.02800
C2797       C  0.20305350  0.74464991  0.62753552     0.37500
C2798       C  0.10188372  0.75122996  0.68690340     0.37500
C2799       C  0.11810741  0.70093011  0.66459145     0.35900
C2800       C  0.17939962  0.79600998  0.63572736     0.35900
N2801       N  0.10499672  0.68196498  0.67023928    -0.38900
N2802       N  0.19174837  0.81346952  0.62551717    -0.38900
N2803       N  0.08293276  0.75145078  0.70141515    -0.38400
N2804       N  0.22530419  0.74311962  0.61911188    -0.38400
C2805       C  0.33689896  0.70745799  0.84447146    -0.05000
C2806       C  0.32059682  0.72319446  0.82635363    -0.02100
C2807       C  0.31641108  0.75168848  0.83092053     0.02800
C2808       C  0.32856662  0.76505258  0.85349025    -0.05000
C2809       C  0.34218464  0.74879009  0.87307779    -0.02100
C2810       C  0.34591006  0.72027107  0.86881225     0.02800
C2811       C  0.30781633  0.71010904  0.80295120     0.37500
C2812       C  0.35225303  0.76074029  0.89827070     0.37500
C2813       C  0.35934591  0.70452005  0.88979892     0.35900
C2814       C  0.30001114  0.76727405  0.81193742     0.35900
N2815       N  0.36964037  0.69281110  0.90743562    -0.38900
N2816       N  0.28693574  0.77935989  0.79648136    -0.38900
N2817       N  0.36045364  0.76810762  0.91921412    -0.38400
N2818       N  0.29760163  0.69972036  0.78427242    -0.38400
C2819       C  0.27230766  0.62689866  0.83421175    -0.05000
C2820       C  0.25394398  0.63990077  0.81632204    -0.02100
C2821       C  0.23116703  0.65481334  0.82697956     0.02800
C2822       C  0.22535640  0.65534753  0.85559294    -0.05000
C2823       C  0.24463375  0.64359292  0.87338606    -0.02100
C2824       C  0.26779221  0.62960962  0.86285825     0.02800
C2825       C  0.25947901  0.63948090  0.78703532     0.37500
C2826       C  0.24206784  0.64699259  0.90285527     0.37500
C2827       C  0.28699072  0.61877301  0.88248214     0.35900
C2828       C  0.21595404  0.67235914  0.80875374     0.35900
N2829       N  0.30061092  0.61147154  0.90026623    -0.38900
N2830       N  0.20478649  0.68701848  0.79404370    -0.38900
N2831       N  0.24180505  0.64989984  0.92638876    -0.38400
N2832       N  0.26393470  0.63921592  0.76368917    -0.38400
C2833       C  0.32202784  0.60189575  0.71898768    -0.05000
C2834       C  0.29704209  0.58740461  0.72209278    -0.02100
C2835       C  0.27807651  0.58578552  0.70034811     0.02800
C2836       C  0.28348884  0.59871203  0.67494889    -0.05000
C2837       C  0.30959741  0.61042031  0.67071569    -0.02100
C2838       C  0.32891117  0.61145304  0.69241176     0.02800
C2839       C  0.29151996  0.57206074  0.74683815     0.37500
C2840       C  0.31664723  0.62148287  0.64411446     0.37500
C2841       C  0.35620564  0.62113081  0.68663378     0.35900
C2842       C  0.25323867  0.56968962  0.70378342     0.35900
N2843       N  0.37805804  0.62795122  0.68047869    -0.38900
N2844       N  0.23371631  0.55643904  0.70643139    -0.38900
N2845       N  0.32270957  0.63003569  0.62284738    -0.38400
N2846       N  0.28659297  0.55876084  0.76578773    -0.38400
C2847       C  0.36033416  0.79039919  0.47190342    -0.05000
C2848       C  0.37807448  0.80787408  0.48700264    -0.02100
C2849       C  0.37819668  0.80753740  0.51605556     0.02800
C2850       C  0.36009204  0.79028083  0.53096907    -0.05000
C2851       C  0.34046884  0.77488247  0.51596136    -0.02100
C2852       C  0.34099405  0.77445055  0.48685442     0.02800
C2853       C  0.39575481  0.82727743  0.47289400     0.37500
C2854       C  0.31922681  0.75945996  0.53013367     0.37500
C2855       C  0.32130288  0.75734853  0.47259955     0.35900
C2856       C  0.39640978  0.82609132  0.53048952     0.35900
N2857       N  0.30521583  0.74389133  0.46156987    -0.38900
N2858       N  0.41095587  0.84095889  0.54185223    -0.38900
N2859       N  0.30182213  0.74750561  0.54109294    -0.38400
N2860       N  0.40983755  0.84291190  0.46187823    -0.38400
C2861       C  0.22098213  0.85301165  0.65957402    -0.05000
C2862       C  0.23562928  0.86874844  0.64018544    -0.02100
C2863       C  0.26419402  0.86579815  0.63729617     0.02800
C2864       C  0.27805275  0.84518637  0.65192146    -0.05000
C2865       C  0.26337953  0.82944404  0.67143900    -0.02100
C2866       C  0.23493633  0.83282216  0.67465335     0.02800
C2867       C  0.22154679  0.88723637  0.62212080     0.37500
C2868       C  0.27756991  0.81071489  0.68946404     0.37500
C2869       C  0.21979821  0.81379478  0.69182103     0.35900
C2870       C  0.27916216  0.88497905  0.62015240     0.35900
N2871       N  0.20798480  0.79799212  0.70498488    -0.38900
N2872       N  0.29099642  0.90100310  0.60726261    -0.38900
N2873       N  0.28865037  0.79608299  0.70427153    -0.38400
N2874       N  0.21107772  0.90144953  0.60657736    -0.38400
C2875       C  0.34055004  0.84323199  0.71808662    -0.05000
C2876       C  0.35277056  0.82805672  0.73914745    -0.02100
C2877       C  0.33971774  0.82569773  0.76479770     0.02800
C2878       C  0.31683287  0.84228030  0.77129049    -0.05000
C2879       C  0.30520758  0.85853744  0.75035337    -0.02100
C2880       C  0.31723090  0.85923318  0.72390730     0.02800
C2881       C  0.37985282  0.81610201  0.73477503     0.37500
C2882       C  0.28096489  0.87492896  0.75608719     0.37500
C2883       C  0.30690250  0.87792486  0.70353050     0.35900
C2884       C  0.35033613  0.80596103  0.78394193     0.35900
N2885       N  0.29890249  0.89355666  0.68777522    -0.38900
N2886       N  0.36001991  0.78914280  0.79735014    -0.38900
N2887       N  0.26152494  0.88805895  0.76001390    -0.38400
N2888       N  0.40146868  0.80674737  0.73139553    -0.38400
C2889       C  0.32034556  0.71734417  0.62074603    -0.05000
C2890       C  0.31699047  0.70036101  0.59749216    -0.02100
C2891       C  0.29492089  0.68142859  0.59625063     0.02800
C2892       C  0.27629474  0.67828738  0.61883584    -0.05000
C2893       C  0.28133333  0.69343352  0.64299699    -0.02100
C2894       C  0.30297359  0.71269831  0.64392127     0.02800
C2895       C  0.33569484  0.70276698  0.57429708     0.37500
C2896       C  0.26436953  0.68924229  0.66730811     0.37500
C2897       C  0.30682470  0.72782220  0.66919103     0.35900
C2898       C  0.29140061  0.66580297  0.57111640     0.35900
N2899       N  0.30881996  0.73956151  0.68969791    -0.38900
N2900       N  0.28888397  0.65336969  0.55101754    -0.38900
N2901       N  0.25085921  0.68600297  0.68667420    -0.38400
N2902       N  0.35063789  0.70447967  0.55578906    -0.38400
C2903       C  0.39068134  0.72219382  0.68344327    -0.05000
C2904       C  0.38029322  0.72578076  0.71064172    -0.02100
C2905       C  0.38552187  0.70640728  0.73100575     0.02800
C2906       C  0.39671155  0.68046665  0.72420188    -0.05000
C2907       C  0.41004877  0.67775981  0.69842514    -0.02100
C2908       C  0.40671429  0.69828945  0.67796176     0.02800
C2909       C  0.36292956  0.74867799  0.71862877     0.37500
C2910       C  0.42853617  0.65494335  0.69352764     0.37500
C2911       C  0.41934513  0.69426908  0.65124730     0.35900
C2912       C  0.38103864  0.71445419  0.75952934     0.35900
N2913       N  0.42948511  0.69095123  0.62992762    -0.38900
N2914       N  0.37775420  0.72142543  0.78204112    -0.38900
N2915       N  0.44346970  0.63683786  0.68969421    -0.38400
N2916       N  0.34810514  0.76583119  0.72583215    -0.38400
C2917       C  0.70848798  0.86414426  0.96904640    -0.05000
C2918       C  0.69571198  0.88457141  0.98551273    -0.02100
C2919       C  0.69863936  0.88446945  0.01427818     0.02800
C2920       C  0.71470188  0.86411878  0.02719036    -0.05000
C2921       C  0.72647674  0.84295969  0.01082121    -0.02100
C2922       C  0.72300565  0.84269132  0.98214532     0.02800
C2923       C  0.67825580  0.90511900  0.97319071     0.37500
C2924       C  0.74269671  0.82135032  0.02309638     0.37500
C2925       C  0.73436647  0.81981189  0.96649251     0.35900
C2926       C  0.68397581  0.90488693  0.03054581     0.35900
N2927       N  0.74310669  0.80129408  0.95427419    -0.38900
N2928       N  0.67222303  0.92114230  0.04345993    -0.38900
N2929       N  0.75553416  0.80390266  0.03255112    -0.38400
N2930       N  0.66421690  0.92148378  0.96353614    -0.38400
C2931       C  0.87015632  0.71458044  0.98208962    -0.05000
C2932       C  0.84761474  0.72456528  0.99804711    -0.02100
C2933       C  0.84743598  0.72225451  0.02687612     0.02800
C2934       C  0.86963693  0.70965818  0.04053227    -0.05000
C2935       C  0.89245014  0.70032042  0.02465293    -0.02100
C2936       C  0.89286985  0.70319462  0.99585844     0.02800
C2937       C  0.82448131  0.73803876  0.98522499     0.37500
C2938       C  0.91562166  0.68702973  0.03755337     0.37500
C2939       C  0.91681617  0.69373949  0.98060344     0.35900
C2940       C  0.82427633  0.73356663  0.04224281     0.35900
N2941       N  0.93615010  0.68633878  0.96875237    -0.38900
N2942       N  0.80568498  0.74247839  0.05428666    -0.38900
N2943       N  0.93421369  0.67650780  0.04765598    -0.38400
N2944       N  0.80581210  0.74868858  0.97539312    -0.38400
C2945       C  0.96858123  0.71296941  0.86968542    -0.05000
C2946       C  0.98263213  0.73094504  0.85186354    -0.02100
C2947       C  0.01143814  0.72984644  0.84955490     0.02800
C2948       C  0.02662599  0.71251065  0.86688106    -0.05000
C2949       C  0.01257693  0.69647985  0.88664061    -0.02100
C2950       C  0.98369586  0.69561995  0.88700680     0.02800
C2951       C  0.96782762  0.75212827  0.83745814     0.37500
C2952       C  0.02759090  0.67939884  0.90555490     0.37500
C2953       C  0.96970400  0.67553208  0.90399427     0.35900
C2954       C  0.02533674  0.74748343  0.82999965     0.35900
N2955       N  0.95866184  0.65919509  0.91719834    -0.38900
N2956       N  0.03618018  0.76145335  0.81416466    -0.38900
N2957       N  0.03930135  0.66580448  0.92084478    -0.38400
N2958       N  0.95660213  0.76970839  0.82640522    -0.38400
C2959       C  0.81796120  0.78078546  0.89005798    -0.05000
C2960       C  0.80328587  0.78319291  0.86518488    -0.02100
C2961       C  0.78302013  0.80363187  0.86208533     0.02800
C2962       C  0.77620241  0.82140274  0.88405393    -0.05000
C2963       C  0.79318318  0.82123414  0.90760216    -0.02100
C2964       C  0.81374838  0.80090563  0.91063825     0.02800
C2965       C  0.80878148  0.76453828  0.84249697     0.37500
C2966       C  0.78939450  0.84151882  0.92917786     0.37500
C2967       C  0.82973205  0.80014890  0.93550780     0.35900
C2968       C  0.77018319  0.80724619  0.83566834     0.35900
N2969       N  0.84251473  0.79977213  0.95535098    -0.38900
N2970       N  0.76052177  0.81041630  0.81437085    -0.38900
N2971       N  0.78658410  0.85778727  0.94635080    -0.38400
N2972       N  0.81267980  0.74974658  0.82424012    -0.38400
C2973       C  0.97088229  0.86457757  0.71372491    -0.05000
C2974       C  0.98739541  0.84493364  0.72700614    -0.02100
C2975       C  0.01631917  0.84560070  0.72415261     0.02800
C2976       C  0.02944394  0.86698375  0.70937951    -0.05000
C2977       C  0.01294489  0.88813051  0.69843217    -0.02100
C2978       C  0.98399900  0.88637090  0.69961858     0.02800
C2979       C  0.97489766  0.82483449  0.74505100     0.37500
C2980       C  0.02543573  0.91198923  0.68580551     0.37500
C2981       C  0.96787252  0.90703297  0.68574620     0.35900
C2982       C  0.03244744  0.82483369  0.73783402     0.35900
N2983       N  0.95506270  0.92355384  0.67475062    -0.38900
N2984       N  0.04511593  0.80816227  0.74876333    -0.38900
N2985       N  0.03511050  0.93117313  0.67577408    -0.38400
N2986       N  0.96522616  0.80900448  0.75983558    -0.38400
C2987       C  0.82180169  0.91530741  0.60978855    -0.05000
C2988       C  0.80761880  0.94025074  0.61506258    -0.02100
C2989       C  0.79405258  0.95357154  0.59371138     0.02800
C2990       C  0.79672568  0.94355950  0.56641765    -0.05000
C2991       C  0.81436685  0.92132773  0.56081031    -0.02100
C2992       C  0.82445865  0.90569396  0.58238823     0.02800
C2993       C  0.80619136  0.95247846  0.64232279     0.37500
C2994       C  0.82162885  0.91386744  0.53280294     0.37500
C2995       C  0.83544207  0.87868533  0.57597698     0.35900
C2996       C  0.77660086  0.97681862  0.60077526     0.35900
N2997       N  0.84389183  0.85706057  0.57085836    -0.38900
N2998       N  0.76293044  0.99511647  0.60749500    -0.38900
N2999       N  0.82773961  0.90792841  0.51057005    -0.38400
N3000       N  0.80444012  0.96248887  0.66385883    -0.38400
C3001       C  0.88649618  0.81094203  0.77926926    -0.05000
C3002       C  0.87876079  0.81872060  0.80611161    -0.02100
C3003       C  0.87815218  0.79916201  0.82721549     0.02800
C3004       C  0.88511370  0.77170919  0.82137797    -0.05000
C3005       C  0.89731313  0.76528083  0.79573305    -0.02100
C3006       C  0.89689185  0.78440508  0.77446226     0.02800
C3007       C  0.87176080  0.84671574  0.81244480     0.37500
C3008       C  0.91372338  0.74085782  0.79161095     0.37500
C3009       C  0.90866655  0.77701108  0.74794640     0.35900
C3010       C  0.87230950  0.80786603  0.85512640     0.35900
N3011       N  0.91836787  0.77080079  0.72709300    -0.38900
N3012       N  0.86860179  0.81561564  0.87730949    -0.38900
N3013       N  0.92865215  0.72305563  0.78652428    -0.38400
N3014       N  0.86655832  0.86891041  0.81885503    -0.38400
C3015       C  0.81276338  0.90907892  0.77343154    -0.05000
C3016       C  0.78465211  0.90808874  0.76718868    -0.02100
C3017       C  0.76529875  0.90107864  0.78747755     0.02800
C3018       C  0.77338385  0.89804517  0.81515137    -0.05000
C3019       C  0.80065571  0.90499743  0.82215476    -0.02100
C3020       C  0.82014519  0.91101102  0.80121839     0.02800
C3021       C  0.77501426  0.91758476  0.74100443     0.37500
C3022       C  0.80885309  0.90545883  0.85056847     0.37500
C3023       C  0.84670720  0.92237399  0.80793833     0.35900
C3024       C  0.73681097  0.89827503  0.77956886     0.35900
N3025       N  0.86786814  0.93175972  0.81306087    -0.38900
N3026       N  0.71430199  0.89596575  0.77269890    -0.38900
N3027       N  0.81539711  0.90587384  0.87329004    -0.38400
N3028       N  0.76665057  0.92666466  0.72096365    -0.38400
C3029       C  0.53042151  0.63287046  0.79781488    -0.05000
C3030       C  0.51639327  0.65012651  0.77928381    -0.02100
C3031       C  0.48749554  0.64990537  0.77805923     0.02800
C3032       C  0.47201436  0.63225797  0.79506963    -0.05000
C3033       C  0.48579051  0.61573305  0.81425667    -0.02100
C3034       C  0.51477187  0.61588949  0.81550477     0.02800
C3035       C  0.53130097  0.66742346  0.76019645     0.37500
C3036       C  0.47011321  0.59933027  0.83358587     0.37500
C3037       C  0.52828722  0.59860375  0.83528009     0.35900
C3038       C  0.47383550  0.66788225  0.75889385     0.35900
N3039       N  0.53886018  0.58452892  0.85095711    -0.38900
N3040       N  0.46324653  0.68259494  0.74380333    -0.38900
N3041       N  0.45767690  0.58636272  0.84913214    -0.38400
N3042       N  0.54234634  0.68149524  0.74462098    -0.38400
C3043       C  0.72053266  0.65074535  0.83831226    -0.05000
C3044       C  0.73922977  0.65930263  0.81735492    -0.02100
C3045       C  0.76624749  0.66636826  0.82406903     0.02800
C3046       C  0.77487663  0.66431486  0.85131177    -0.05000
C3047       C  0.75652505  0.65604370  0.87218418    -0.02100
C3048       C  0.72931444  0.65014804  0.86596690     0.02800
C3049       C  0.73142238  0.66070947  0.78871981     0.37500
C3050       C  0.76575259  0.65285711  0.90030078     0.37500
C3051       C  0.71099236  0.64304043  0.88854694     0.35900
C3052       C  0.78488013  0.67643064  0.80300735     0.35900
N3053       N  0.69681225  0.63719586  0.90676801    -0.38900
N3054       N  0.79932809  0.68459339  0.78596832    -0.38900
N3055       N  0.77307464  0.65057856  0.92265160    -0.38400
N3056       N  0.72557290  0.66183184  0.76582354    -0.38400
C3057       C  0.66323945  0.71184711  0.84812590    -0.05000
C3058       C  0.66189288  0.71845266  0.87658489    -0.02100
C3059       C  0.66687547  0.74543958  0.88578711     0.02800
C3060       C  0.67423405  0.76619406  0.86706379    -0.05000
C3061       C  0.67991076  0.75872143  0.83957250    -0.02100
C3062       C  0.67405251  0.73191033  0.82997732     0.02800
C3063       C  0.65495369  0.69793124  0.89696925     0.37500
C3064       C  0.69260926  0.77834108  0.82119728     0.37500
C3065       C  0.67959604  0.72526674  0.80142127     0.35900
C3066       C  0.66395300  0.75150731  0.91481055     0.35900
N3067       N  0.68412657  0.72009050  0.77864160    -0.38900
N3068       N  0.66177045  0.75516521  0.93816073    -0.38900
N3069       N  0.70267117  0.79366871  0.80615123    -0.38400
N3070       N  0.64937701  0.68186228  0.91346473    -0.38400
C3071       C  0.80279059  0.62648105  0.47286486    -0.05000
C3072       C  0.80696815  0.60268811  0.48827870    -0.02100
C3073       C  0.80719487  0.60411979  0.51719802     0.02800
C3074       C  0.80121745  0.62935454  0.53116189    -0.05000
C3075       C  0.79745541  0.65327499  0.51511144    -0.02100
C3076       C  0.79965509  0.65193994  0.48630003     0.02800
C3077       C  0.81150019  0.57672035  0.47418576     0.37500
C3078       C  0.78963044  0.67926091  0.52754053     0.37500
C3079       C  0.79790453  0.67698390  0.47051677     0.35900
C3080       C  0.81355651  0.57924192  0.53201627     0.35900
N3081       N  0.79648926  0.69737663  0.45863821    -0.38900
N3082       N  0.81874900  0.55927843  0.54356171    -0.38900
N3083       N  0.78279929  0.70003329  0.53696399    -0.38400
N3084       N  0.81513293  0.55608407  0.46288402    -0.38400
C3085       C  0.84824384  0.65336337  0.71892191    -0.05000
C3086       C  0.84764316  0.68093873  0.72764821    -0.02100
C3087       C  0.85670423  0.68813858  0.75413473     0.02800
C3088       C  0.86566540  0.66761932  0.77228994    -0.05000
C3089       C  0.86380561  0.63981535  0.76428113    -0.02100
C3090       C  0.85620886  0.63277396  0.73741506     0.02800
C3091       C  0.83592882  0.70165488  0.71010767     0.37500
C3092       C  0.86735809  0.61817888  0.78423082     0.37500
C3093       C  0.85552870  0.60405111  0.72958762     0.35900
C3094       C  0.85294826  0.71602342  0.76376928     0.35900
N3095       N  0.85537900  0.58084052  0.72457677    -0.38900
N3096       N  0.84855842  0.73823672  0.77095379    -0.38900
N3097       N  0.86900291  0.60057252  0.79988882    -0.38400
N3098       N  0.82608413  0.71825397  0.69654308    -0.38400
C3099       C  0.85388688  0.78329160  0.64274962    -0.05000
C3100       C  0.82998232  0.77924842  0.62736109    -0.02100
C3101       C  0.82102100  0.75232970  0.62146285     0.02800
C3102       C  0.83642053  0.72937078  0.63057764    -0.05000
C3103       C  0.86182861  0.73411570  0.64372774    -0.02100
C3104       C  0.87075176  0.76094819  0.64893872     0.02800
C3105       C  0.81444746  0.80270128  0.61800123     0.37500
C3106       C  0.87913509  0.71189049  0.65268632     0.37500
C3107       C  0.89808659  0.76578365  0.65955911     0.35900
C3108       C  0.79537471  0.74859907  0.60705940     0.35900
N3109       N  0.92015282  0.76951872  0.66724990    -0.38900
N3110       N  0.77495870  0.74567173  0.59548975    -0.38900
N3111       N  0.89365071  0.69520754  0.66092933    -0.38400
N3112       N  0.80204763  0.82132217  0.61033098    -0.38400
C3113       C  0.72216174  0.60037756  0.68160551    -0.05000
C3114       C  0.69459786  0.60010670  0.67279749    -0.02100
C3115       C  0.67267480  0.59834900  0.69229203     0.02800
C3116       C  0.67806961  0.59919884  0.72071469    -0.05000
C3117       C  0.70567642  0.59593893  0.72905130    -0.02100
C3118       C  0.72735618  0.59591479  0.70970934     0.02800
C3119       C  0.68870209  0.60247131  0.64387975     0.37500
C3120       C  0.71201161  0.59157216  0.75770020     0.37500
C3121       C  0.75517513  0.59074280  0.71889290     0.35900
C3122       C  0.64521154  0.59331926  0.68286194     0.35900
N3123       N  0.77729652  0.58650881  0.72617198    -0.38900
N3124       N  0.62397030  0.58757374  0.67424274    -0.38900
N3125       N  0.71750426  0.58786408  0.78037619    -0.38400
N3126       N  0.68398262  0.60441569  0.62078258    -0.38400
C3127       C  0.52705239  0.78405272  0.63587217    -0.05000
C3128       C  0.51405810  0.80266955  0.61789431    -0.02100
C3129       C  0.48510163  0.80568638  0.61809375     0.02800
C3130       C  0.46848205  0.79018522  0.63623731    -0.05000
C3131       C  0.48157149  0.77188441  0.65451363    -0.02100
C3132       C  0.51040792  0.76852942  0.65398539     0.02800
C3133       C  0.53037771  0.81906916  0.59912549     0.37500
C3134       C  0.46563271  0.75584103  0.67392872     0.37500
C3135       C  0.52259376  0.74776465  0.67126997     0.35900
C3136       C  0.47257757  0.82560187  0.60015596     0.35900
N3137       N  0.53199570  0.73101607  0.68499089    -0.38900
N3138       N  0.46265903  0.84154591  0.58586379    -0.38900
N3139       N  0.45345778  0.74313725  0.68987920    -0.38400
N3140       N  0.54335936  0.83191404  0.58392428    -0.38400
C3141       C  0.63576550  0.78962284  0.53488576    -0.05000
C3142       C  0.63421733  0.81442286  0.52020030    -0.02100
C3143       C  0.62984472  0.81400639  0.49158828     0.02800
C3144       C  0.63034599  0.78896343  0.47697475    -0.05000
C3145       C  0.62860724  0.76434289  0.49186155    -0.02100
C3146       C  0.63050270  0.76475047  0.52075595     0.02800
C3147       C  0.63501944  0.84045613  0.53461446     0.37500
C3148       C  0.62252832  0.73890934  0.47759649     0.37500
C3149       C  0.62487219  0.73991165  0.53598848     0.35900
C3150       C  0.62097806  0.83878927  0.47815209     0.35900
N3151       N  0.62003858  0.72006105  0.54796531    -0.38900
N3152       N  0.61257525  0.85864464  0.46848279    -0.38900
N3153       N  0.61751711  0.71867347  0.46620320    -0.38400
N3154       N  0.63528852  0.86155866  0.54554004    -0.38400
C3155       C  0.64786478  0.82884984  0.72689769    -0.05000
C3156       C  0.65035639  0.85671727  0.73504609    -0.02100
C3157       C  0.65156046  0.86371214  0.76297242     0.02800
C3158       C  0.65027429  0.84318216  0.78309911    -0.05000
C3159       C  0.64500339  0.81605673  0.77538791    -0.02100
C3160       C  0.64625949  0.80842740  0.74758107     0.02800
C3161       C  0.65238211  0.87860053  0.71503805     0.37500
C3162       C  0.63600677  0.79655190  0.79588692     0.37500
C3163       C  0.64738633  0.77945945  0.74106354     0.35900
C3164       C  0.65244190  0.89243173  0.77060906     0.35900
N3165       N  0.64911073  0.75623425  0.73648604    -0.38900
N3166       N  0.65283735  0.91576089  0.77493865    -0.38900
N3167       N  0.62772245  0.78124894  0.81199147    -0.38400
N3168       N  0.65380139  0.89626553  0.69937327    -0.38400
C3169       C  0.72601689  0.82817399  0.65052519    -0.05000
C3170       C  0.74620789  0.80869692  0.65792745    -0.02100
C3171       C  0.77106961  0.81736855  0.67041364     0.02800
C3172       C  0.77692794  0.84561565  0.67332581    -0.05000
C3173       C  0.75663437  0.86469048  0.66595180    -0.02100
C3174       C  0.73098153  0.85606922  0.65627771     0.02800
C3175       C  0.74122832  0.77978253  0.65343700     0.37500
C3176       C  0.76230794  0.89372045  0.66609888     0.37500
C3177       C  0.71021135  0.87679501  0.65193719     0.35900
C3178       C  0.78998727  0.79732370  0.68115925     0.35900
N3179       N  0.69510603  0.89489784  0.64975550    -0.38900
N3180       N  0.80467444  0.78113252  0.69014048    -0.38900
N3181       N  0.76500229  0.91717413  0.66506272    -0.38400
N3182       N  0.73759838  0.75660673  0.64990448    -0.38400
C3183       C  0.66595416  0.88936908  0.59492233    -0.05000
C3184       C  0.65586994  0.91660886  0.59807980    -0.02100
C3185       C  0.67017998  0.93915594  0.58623100     0.02800
C3186       C  0.69597036  0.93515869  0.57324332    -0.05000
C3187       C  0.70667914  0.90822458  0.57220897    -0.02100
C3188       C  0.69067344  0.88551886  0.58008931     0.02800
C3189       C  0.63057820  0.92160041  0.61318801     0.37500
C3190       C  0.73543829  0.90324685  0.56682828     0.37500
C3191       C  0.70059891  0.85824644  0.57318331     0.35900
C3192       C  0.65831547  0.96636086  0.58756330     0.35900
N3193       N  0.70885928  0.83697026  0.56648455    -0.38900
N3194       N  0.64857300  0.98797674  0.58865391    -0.38900
N3195       N  0.75793823  0.89631724  0.56374260    -0.38400
N3196       N  0.61054662  0.92583130  0.62544130    -0.38400
C3197       C  0.60144122  0.71145140  0.68027059    -0.05000
C3198       C  0.59951124  0.68315435  0.67461319    -0.02100
C3199       C  0.59794449  0.66442654  0.69668353     0.02800
C3200       C  0.60326028  0.67362542  0.72365459    -0.05000
C3201       C  0.60157564  0.70200120  0.72928680    -0.02100
C3202       C  0.59843284  0.72048585  0.70772618     0.02800
C3203       C  0.59967969  0.67333642  0.64658283     0.37500
C3204       C  0.60136936  0.71225209  0.75734330     0.37500
C3205       C  0.59092973  0.74866339  0.71384233     0.35900
C3206       C  0.58732386  0.63715600  0.69227145     0.35900
N3207       N  0.58441158  0.77090359  0.71903497    -0.38900
N3208       N  0.57691923  0.61605374  0.68925856    -0.38900
N3209       N  0.60121732  0.72050486  0.77963327    -0.38400
N3210       N  0.59998236  0.66545348  0.62416565    -0.38400
C3211       C  0.68397806  0.71859272  0.61698553    -0.05000
C3212       C  0.69439882  0.70810506  0.64184745    -0.02100
C3213       C  0.71571285  0.68826596  0.64172224     0.02800
C3214       C  0.72604648  0.67726955  0.61678375    -0.05000
C3215       C  0.71398523  0.68588550  0.59203961    -0.02100
C3216       C  0.69433463  0.70741066  0.59203970     0.02800
C3217       C  0.68387776  0.71823167  0.66788140     0.37500
C3218       C  0.72247975  0.67336726  0.56627312     0.37500
C3219       C  0.68786146  0.72021975  0.56623769     0.35900
C3220       C  0.72695075  0.67916534  0.66752580     0.35900
N3221       N  0.68422792  0.73046460  0.54528295    -0.38900
N3222       N  0.73575255  0.67222104  0.68828789    -0.38900
N3223       N  0.72871443  0.66306995  0.54570222    -0.38400
N3224       N  0.67594677  0.72607030  0.68893403    -0.38400
C3225       C  0.29599386  0.13369234  0.97725271    -0.05000
C3226       C  0.27474704  0.14668060  0.99227865    -0.02100
C3227       C  0.27434832  0.14521617  0.02088090     0.02800
C3228       C  0.29579951  0.13194849  0.03451136    -0.05000
C3229       C  0.31429124  0.11526611  0.01952013    -0.02100
C3230       C  0.31506871  0.11686491  0.99082621     0.02800
C3231       C  0.25187013  0.15957099  0.97864631     0.37500
C3232       C  0.33056021  0.09477267  0.03330203     0.37500
C3233       C  0.33598781  0.10193532  0.97546579     0.35900
C3234       C  0.24956610  0.15299434  0.03571137     0.35900
N3235       N  0.35275351  0.09013484  0.96324690    -0.38900
N3236       N  0.22891371  0.15808228  0.04648844    -0.38900
N3237       N  0.34264530  0.07774466  0.04433523    -0.38400
N3238       N  0.23284878  0.16966151  0.96897774    -0.38400
C3239       C  0.28398452  0.97265201  0.87828041    -0.05000
C3240       C  0.27572762  0.98701450  0.85437555    -0.02100
C3241       C  0.27730437  0.01582609  0.85303874     0.02800
C3242       C  0.28725754  0.03119755  0.87551715    -0.05000
C3243       C  0.29332866  0.01686997  0.90028272    -0.02100
C3244       C  0.29158098  0.98788479  0.90153189     0.02800
C3245       C  0.26553632  0.97229914  0.83052629     0.37500
C3246       C  0.30158941  0.03143835  0.92487853     0.37500
C3247       C  0.29834362  0.97376096  0.92663587     0.35900
C3248       C  0.26810762  0.02932832  0.82829042     0.35900
N3249       N  0.30350838  0.96263650  0.94680305    -0.38900
N3250       N  0.26069266  0.03990069  0.80852983    -0.38900
N3251       N  0.30799840  0.04279610  0.94469863    -0.38400
N3252       N  0.25774678  0.96098453  0.81119638    -0.38400
C3253       C  0.13529806  0.97406677  0.71594385    -0.05000
C3254       C  0.15437169  0.98852416  0.73240947    -0.02100
C3255       C  0.15481238  0.01747139  0.73259367     0.02800
C3256       C  0.13555955  0.03246853  0.71715634    -0.05000
C3257       C  0.11791396  0.01809301  0.69935904    -0.02100
C3258       C  0.11784018  0.98915025  0.69861671     0.02800
C3259       C  0.17404679  0.97391704  0.74905145     0.37500
C3260       C  0.10168791  0.03314166  0.67984541     0.37500
C3261       C  0.10117270  0.97505068  0.67848780     0.35900
C3262       C  0.17584559  0.03153509  0.74813707     0.35900
N3263       N  0.08814257  0.96388403  0.66217792    -0.38900
N3264       N  0.19325880  0.04224916  0.76007187    -0.38900
N3265       N  0.08928978  0.04520195  0.66386320    -0.38400
N3266       N  0.19014448  0.96257123  0.76205706    -0.38400
C3267       C  0.22303096  0.12085347  0.82857088    -0.05000
C3268       C  0.20427069  0.09877856  0.82595021    -0.02100
C3269       C  0.18338007  0.09932016  0.80575551     0.02800
C3270       C  0.18169251  0.12135513  0.78691882    -0.05000
C3271       C  0.19839239  0.14462325  0.79187492    -0.02100
C3272       C  0.21864658  0.14446471  0.81247911     0.02800
C3273       C  0.20697772  0.07487184  0.84322246     0.37500
C3274       C  0.19404546  0.16954388  0.77666133     0.37500
C3275       C  0.23474869  0.16905286  0.81734936     0.35900
C3276       C  0.16380223  0.07700084  0.80459197     0.35900
N3277       N  0.24749436  0.18868513  0.82125148    -0.38900
N3278       N  0.14808066  0.05922549  0.80409108    -0.38900
N3279       N  0.19075707  0.18983572  0.76509194    -0.38400
N3280       N  0.20909978  0.05580882  0.85703596    -0.38400
C3281       C  0.10679113  0.28256029  0.96753057    -0.05000
C3282       C  0.11306390  0.25800362  0.98166748    -0.02100
C3283       C  0.11547594  0.25770950  0.01074280     0.02800
C3284       C  0.11089885  0.28175906  0.02662726    -0.05000
C3285       C  0.10281136  0.30591613  0.01265376    -0.02100
C3286       C  0.10077767  0.30630322  0.98367254     0.02800
C3287       C  0.11873584  0.23303967  0.96645363     0.37500
C3288       C  0.09732660  0.33113601  0.02781415     0.37500
C3289       C  0.09327939  0.33192735  0.97066795     0.35900
C3290       C  0.12501279  0.23297194  0.02395403     0.35900
N3291       N  0.08771342  0.35262132  0.96066624    -0.38900
N3292       N  0.13289903  0.21333982  0.03447920    -0.38900
N3293       N  0.09332033  0.35138777  0.03969797    -0.38400
N3294       N  0.12322375  0.21283660  0.95471876    -0.38400
C3295       C  0.22489242  0.18408530  0.90905671    -0.05000
C3296       C  0.23237856  0.21063433  0.91828786    -0.02100
C3297       C  0.21309510  0.23216459  0.91854855     0.02800
C3298       C  0.18613030  0.22724513  0.90957611    -0.05000
C3299       C  0.17788663  0.19983168  0.90392796    -0.02100
C3300       C  0.19730352  0.17839460  0.90342059     0.02800
C3301       C  0.26011498  0.21592953  0.92740981     0.37500
C3302       C  0.14943707  0.19352046  0.89826415     0.37500
C3303       C  0.18922305  0.15090257  0.89542484     0.35900
C3304       C  0.22162934  0.25951081  0.92660100     0.35900
N3305       N  0.18271416  0.12898269  0.88905338    -0.38900
N3306       N  0.22863857  0.28118918  0.93325177    -0.38900
N3307       N  0.12676211  0.18819137  0.89393552    -0.38400
N3308       N  0.28203927  0.22039043  0.93509834    -0.38400
C3309       C  0.09648653  0.23852893  0.80216325    -0.05000
C3310       C  0.08917176  0.21232381  0.81200956    -0.02100
C3311       C  0.08793229  0.18978499  0.79387914     0.02800
C3312       C  0.09107530  0.19384487  0.76532331    -0.05000
C3313       C  0.09335632  0.22094682  0.75540390    -0.02100
C3314       C  0.09843250  0.24266062  0.77374194     0.02800
C3315       C  0.08268533  0.20861288  0.84083703     0.37500
C3316       C  0.09164869  0.22685018  0.72636486     0.37500
C3317       C  0.10918219  0.26783346  0.76285545     0.35900
C3318       C  0.08297247  0.16259521  0.80474422     0.35900
N3319       N  0.11895730  0.28651124  0.75222052    -0.38900
N3320       N  0.07912445  0.14090703  0.81344671    -0.38900
N3321       N  0.08992338  0.23212676  0.70337472    -0.38400
N3322       N  0.07696650  0.20579892  0.86371654    -0.38400
C3323       C  0.37578737  0.46336263  0.79186004    -0.05000
C3324       C  0.36488822  0.47698477  0.76865640    -0.02100
C3325       C  0.36180273  0.50587717  0.76832156     0.02800
C3326       C  0.37070011  0.52211850  0.79049474    -0.05000
C3327       C  0.38210800  0.50877126  0.81349244    -0.02100
C3328       C  0.38372543  0.47962683  0.81458745     0.02800
C3329       C  0.35656078  0.46156568  0.74467577     0.37500
C3330       C  0.39258964  0.52504791  0.83598390     0.37500
C3331       C  0.39428658  0.46648388  0.83886923     0.35900
C3332       C  0.35052105  0.51904878  0.74434376     0.35900
N3333       N  0.40254151  0.45592603  0.85829033    -0.38900
N3334       N  0.34157794  0.52942596  0.72514498    -0.38900
N3335       N  0.40139109  0.53799043  0.85378153    -0.38400
N3336       N  0.35009223  0.45004025  0.72500121    -0.38400
C3337       C  0.34293735  0.27642722  0.83953620    -0.05000
C3338       C  0.33456981  0.25767961  0.81869810    -0.02100
C3339       C  0.33206933  0.22966822  0.82448364     0.02800
C3340       C  0.33879759  0.21985838  0.85054973    -0.05000
C3341       C  0.34250886  0.23885451  0.87225348    -0.02100
C3342       C  0.34449676  0.26709835  0.86679671     0.02800
C3343       C  0.32827426  0.26658406  0.79109648     0.37500
C3344       C  0.34220260  0.23003288  0.90053419     0.37500
C3345       C  0.34803109  0.28631054  0.88935613     0.35900
C3346       C  0.32037446  0.21132029  0.80414403     0.35900
N3347       N  0.35081943  0.30164381  0.90731223    -0.38900
N3348       N  0.31010376  0.19735705  0.78798880    -0.38900
N3349       N  0.34182249  0.22452155  0.92356330    -0.38400
N3350       N  0.32350833  0.27300813  0.76886079    -0.38400
C3351       C  0.28346269  0.33620854  0.83947048    -0.05000
C3352       C  0.27409240  0.33955181  0.86702593    -0.02100
C3353       C  0.24742455  0.33131930  0.87508425     0.02800
C3354       C  0.23008882  0.31722919  0.85657332    -0.05000
C3355       C  0.24071441  0.31082450  0.83006460    -0.02100
C3356       C  0.26643551  0.32155736  0.82109081     0.02800
C3357       C  0.29111036  0.35287657  0.88742105     0.37500
C3358       C  0.22486229  0.29374209  0.81159616     0.37500
C3359       C  0.27451266  0.31840315  0.79257102     0.35900
C3360       C  0.23747587  0.33959340  0.90209066     0.35900
N3361       N  0.28027754  0.31631750  0.76958538    -0.38900
N3362       N  0.22976077  0.34655786  0.92354360    -0.38900
N3363       N  0.21219978  0.28013632  0.79688076    -0.38400
N3364       N  0.30449728  0.36315342  0.90401234    -0.38400
C3365       C  0.22824855  0.46260116  0.60695624    -0.05000
C3366       C  0.20927235  0.47758161  0.59118952    -0.02100
C3367       C  0.20705513  0.50626707  0.59410698     0.02800
C3368       C  0.22504446  0.52064644  0.61147619    -0.05000
C3369       C  0.24630784  0.50611752  0.62457523    -0.02100
C3370       C  0.24755672  0.47719999  0.62280298     0.02800
C3371       C  0.19121850  0.46340382  0.57246723     0.37500
C3372       C  0.26687947  0.52081122  0.64018152     0.37500
C3373       C  0.26751999  0.46277987  0.63905946     0.35900
C3374       C  0.18457159  0.52048970  0.58113104     0.35900
N3375       N  0.28374471  0.45218972  0.65247427    -0.38900
N3376       N  0.16630983  0.53158490  0.57108747    -0.38900
N3377       N  0.28352454  0.53225416  0.65253580    -0.38400
N3378       N  0.17670426  0.45259348  0.55726315    -0.38400
C3379       C  0.20627770  0.38430377  0.53044356    -0.05000
C3380       C  0.18211773  0.39123374  0.51582484    -0.02100
C3381       C  0.18164191  0.38959977  0.48675888     0.02800
C3382       C  0.20528372  0.38163470  0.47182591    -0.05000
C3383       C  0.22990491  0.37712416  0.48590903    -0.02100
C3384       C  0.23056737  0.37849712  0.51481268     0.02800
C3385       C  0.15734817  0.39959136  0.53036245     0.37500
C3386       C  0.25502679  0.37126801  0.47066678     0.37500
C3387       C  0.25666081  0.37328096  0.52787280     0.35900
C3388       C  0.15641319  0.39494093  0.47218910     0.35900
N3389       N  0.27770836  0.36914095  0.53778864    -0.38900
N3390       N  0.13627043  0.39898702  0.46053018    -0.38900
N3391       N  0.27549357  0.36678689  0.45925683    -0.38400
N3392       N  0.13737127  0.40602950  0.54173392    -0.38400
C3393       C  0.16273910  0.35277159  0.71592422    -0.05000
C3394       C  0.18431979  0.35129696  0.73479441    -0.02100
C3395       C  0.17861924  0.34693007  0.76271420     0.02800
C3396       C  0.15158942  0.34061709  0.77156367    -0.05000
C3397       C  0.12984685  0.34379101  0.75288322    -0.02100
C3398       C  0.13545415  0.34910978  0.72503804     0.02800
C3399       C  0.21254681  0.35068800  0.72508617     0.37500
C3400       C  0.10147790  0.34300354  0.76207705     0.37500
C3401       C  0.11293775  0.35092004  0.70590364     0.35900
C3402       C  0.20017906  0.35199432  0.78231372     0.35900
N3403       N  0.09467201  0.35197964  0.69099140    -0.38900
N3404       N  0.21722787  0.35773883  0.79761973    -0.38900
N3405       N  0.07842032  0.34240585  0.76790009    -0.38400
N3406       N  0.23499944  0.34854017  0.71743354    -0.38400
C3407       C  0.17031110  0.27280958  0.64852920    -0.05000
C3408       C  0.17059455  0.26422320  0.67605796    -0.02100
C3409       C  0.16145289  0.23764939  0.68328159     0.02800
C3410       C  0.15479437  0.21814103  0.66271489    -0.05000
C3411       C  0.15858730  0.22578160  0.63486584    -0.02100
C3412       C  0.16362228  0.25331978  0.62807973     0.02800
C3413       C  0.18128924  0.28194655  0.69714573     0.37500
C3414       C  0.15509507  0.20624399  0.61254510     0.37500
C3415       C  0.15770552  0.26191573  0.60037398     0.35900
C3416       C  0.15888079  0.23095360  0.71205686     0.35900
N3417       N  0.15170374  0.26802069  0.57838870    -0.38900
N3418       N  0.15680110  0.22633244  0.73519024    -0.38900
N3419       N  0.15227643  0.19089863  0.59460616    -0.38400
N3420       N  0.19048834  0.29445250  0.71497628    -0.38400
C3421       C  0.27048138  0.39731931  0.68825939    -0.05000
C3422       C  0.29827370  0.39450965  0.68025500    -0.02100
C3423       C  0.31914475  0.39471088  0.69994727     0.02800
C3424       C  0.31242730  0.39659726  0.72831293    -0.05000
C3425       C  0.28472451  0.40242017  0.73594615    -0.02100
C3426       C  0.26420112  0.40406559  0.71578451     0.02800
C3427       C  0.30574029  0.39353779  0.65139796     0.37500
C3428       C  0.27656358  0.40559641  0.76449605     0.37500
C3429       C  0.23654988  0.41201325  0.72376946     0.35900
C3430       C  0.34750389  0.39312104  0.69048391     0.35900
N3431       N  0.21469156  0.41852501  0.73062624    -0.38900
N3432       N  0.37001242  0.39178690  0.68276522    -0.38900
N3433       N  0.26979388  0.40804531  0.78719045    -0.38400
N3434       N  0.31201098  0.39372470  0.62848228    -0.38400
C3435       C  0.37642602  0.21557583  0.52491378    -0.05000
C3436       C  0.40198950  0.21953105  0.51152298    -0.02100
C3437       C  0.40363777  0.22001322  0.48236329     0.02800
C3438       C  0.38001108  0.21477408  0.46651724    -0.05000
C3439       C  0.35465677  0.21086564  0.48020358    -0.02100
C3440       C  0.35271800  0.21252889  0.50885680     0.02800
C3441       C  0.42649043  0.22280386  0.52775686     0.37500
C3442       C  0.32958212  0.20494786  0.46564370     0.37500
C3443       C  0.32546078  0.21097041  0.52096132     0.35900
C3444       C  0.42966494  0.22507137  0.46871654     0.35900
N3445       N  0.30253775  0.20973450  0.52727339    -0.38900
N3446       N  0.45046011  0.22920462  0.45783543    -0.38900
N3447       N  0.30804619  0.20012247  0.45712449    -0.38400
N3448       N  0.44601342  0.22545684  0.54080313    -0.38400
C3449       C  0.33740587  0.14954400  0.71886109    -0.05000
C3450       C  0.31230277  0.13648149  0.72581581    -0.02100
C3451       C  0.30630439  0.12975288  0.75327235     0.02800
C3452       C  0.32541789  0.13578987  0.77399022    -0.05000
C3453       C  0.34929937  0.15111382  0.76726944    -0.02100
C3454       C  0.35515016  0.15806806  0.73988998     0.02800
C3455       C  0.29245458  0.12987430  0.70480256     0.37500
C3456       C  0.36850104  0.15960529  0.78815474     0.37500
C3457       C  0.38031969  0.17277727  0.73345840     0.35900
C3458       C  0.28012938  0.11718116  0.76018880     0.35900
N3459       N  0.40036557  0.18457140  0.72854971    -0.38900
N3460       N  0.25923665  0.10724133  0.76570162    -0.38900
N3461       N  0.38412955  0.16720672  0.80415517    -0.38400
N3462       N  0.27657153  0.12437289  0.68819253    -0.38400
C3463       C  0.21238311  0.15915034  0.64915418    -0.05000
C3464       C  0.23052999  0.17565705  0.66455357    -0.02100
C3465       C  0.25780610  0.17984288  0.65546370     0.02800
C3466       C  0.26793047  0.16608296  0.63170812    -0.05000
C3467       C  0.24885402  0.15189418  0.61505887    -0.02100
C3468       C  0.22101859  0.14993624  0.62293052     0.02800
C3469       C  0.22130751  0.18889517  0.68966278     0.37500
C3470       C  0.25742610  0.13828241  0.59005178     0.37500
C3471       C  0.20157227  0.13823848  0.60375498     0.35900
C3472       C  0.27528854  0.19826202  0.67096420     0.35900
N3473       N  0.18617142  0.12943475  0.58809653    -0.38900
N3474       N  0.28912965  0.21292509  0.68342135    -0.38900
N3475       N  0.26348727  0.12739325  0.56982496    -0.38400
N3476       N  0.21458857  0.19970945  0.70978447    -0.38400
C3477       C  0.29419381  0.25011361  0.58676913    -0.05000
C3478       C  0.30364318  0.27744965  0.58967063    -0.02100
C3479       C  0.28527196  0.29987200  0.58838534     0.02800
C3480       C  0.25686471  0.29589446  0.58389515    -0.05000
C3481       C  0.24844233  0.26920702  0.57601898    -0.02100
C3482       C  0.26663630  0.24629460  0.57844737     0.02800
C3483       C  0.33267569  0.28276314  0.59368875     0.37500
C3484       C  0.22222667  0.26558380  0.56303514     0.37500
C3485       C  0.25663078  0.21896375  0.57285866     0.35900
C3486       C  0.29612671  0.32743893  0.59020255     0.35900
N3487       N  0.24820229  0.19734018  0.56798701    -0.38900
N3488       N  0.30516092  0.34931983  0.59110384    -0.38900
N3489       N  0.20214134  0.26246729  0.55101931    -0.38400
N3490       N  0.35578852  0.28704293  0.59687638    -0.38400
C3491       C  0.38744531  0.25449562  0.68441093    -0.05000
C3492       C  0.41188076  0.26028059  0.69900331    -0.02100
C3493       C  0.41450583  0.28511293  0.71412255     0.02800
C3494       C  0.39241762  0.30385297  0.71594888    -0.05000
C3495       C  0.36845785  0.29857395  0.70115389    -0.02100
C3496       C  0.36596470  0.27456255  0.68523100     0.02800
C3497       C  0.43418341  0.24057742  0.69927632     0.37500
C3498       C  0.34530443  0.31725663  0.70368684     0.37500
C3499       C  0.34023727  0.27081707  0.67087634     0.35900
C3500       C  0.43967641  0.29091371  0.72863848     0.35900
N3501       N  0.31940246  0.26858104  0.65992276    -0.38900
N3502       N  0.45998082  0.29541896  0.73989725    -0.38900
N3503       N  0.32645078  0.33154325  0.70578458    -0.38400
N3504       N  0.45197882  0.22485903  0.69953420    -0.38400
C3505       C  0.87313386  0.27831987  0.96600038    -0.05000
C3506       C  0.89965223  0.27888912  0.97819446    -0.02100
C3507       C  0.90236655  0.28263097  0.00678948     0.02800
C3508       C  0.87893397  0.28634516  0.02346980    -0.05000
C3509       C  0.85264837  0.28401081  0.01143573    -0.02100
C3510       C  0.85009144  0.27709212  0.98352442     0.02800
C3511       C  0.92422789  0.27309650  0.96210867     0.37500
C3512       C  0.82768514  0.28965322  0.02675398     0.37500
C3513       C  0.82406467  0.26669997  0.97351614     0.35900
C3514       C  0.92937831  0.28296940  0.01904440     0.35900
N3515       N  0.80337533  0.25822630  0.96566720    -0.38900
N3516       N  0.95097115  0.28328109  0.02867562    -0.38900
N3517       N  0.80671115  0.29436678  0.03710384    -0.38400
N3518       N  0.94384635  0.26793222  0.94952511    -0.38400
C3519       C  0.97324612  0.29636864  0.86431152    -0.05000
C3520       C  0.99016829  0.28669037  0.84268245    -0.02100
C3521       C  0.01914906  0.28569481  0.84542717     0.02800
C3522       C  0.03231336  0.29499961  0.86973869    -0.05000
C3523       C  0.01545125  0.30556419  0.89101016    -0.02100
C3524       C  0.98633909  0.30589592  0.88861033     0.02800
C3525       C  0.97785924  0.27720595  0.81729860     0.37500
C3526       C  0.02804548  0.31598705  0.91571547     0.37500
C3527       C  0.97010151  0.31727661  0.91104516     0.35900
C3528       C  0.03457044  0.27606158  0.82186162     0.35900
N3529       N  0.95727962  0.32671524  0.92884280    -0.38900
N3530       N  0.04395510  0.26842893  0.80133436    -0.38900
N3531       N  0.03781936  0.32442395  0.93553975    -0.38400
N3532       N  0.96823049  0.26978529  0.79697691    -0.38400
C3533       C  0.70421442  0.12816466  0.97206862    -0.05000
C3534       C  0.70337991  0.10217205  0.98544421    -0.02100
C3535       C  0.70019605  0.10026205  0.01440453     0.02800
C3536       C  0.69751512  0.12399173  0.03087865    -0.05000
C3537       C  0.69892670  0.14979819  0.01775533    -0.02100
C3538       C  0.70412347  0.15179596  0.98914124     0.02800
C3539       C  0.70921884  0.07717851  0.97026036     0.37500
C3540       C  0.69620181  0.17489851  0.03350012     0.37500
C3541       C  0.71331415  0.17789787  0.97835550     0.35900
C3542       C  0.70059268  0.07363005  0.02748706     0.35900
N3543       N  0.72153202  0.19861734  0.97025590    -0.38900
N3544       N  0.70104182  0.05236008  0.03782840    -0.38900
N3545       N  0.69399143  0.19577849  0.04465396    -0.38400
N3546       N  0.71470936  0.05714627  0.95862362    -0.38400
C3547       C  0.70521464  0.96964745  0.86409901    -0.05000
C3548       C  0.68863336  0.98460861  0.88284810    -0.02100
C3549       C  0.69107183  0.01329110  0.88466255     0.02800
C3550       C  0.70751601  0.02763947  0.86544878    -0.05000
C3551       C  0.72527624  0.01265682  0.84796031    -0.02100
C3552       C  0.72397031  0.98388269  0.84703942     0.02800
C3553       C  0.66809906  0.97076977  0.89951539     0.37500
C3554       C  0.74777157  0.02624199  0.83391553     0.37500
C3555       C  0.74274020  0.96932480  0.82887683     0.35900
C3556       C  0.67800078  0.02754404  0.90747647     0.35900
N3557       N  0.75809713  0.95882618  0.81395531    -0.38900
N3558       N  0.66770998  0.03872026  0.92589095    -0.38900
N3559       N  0.76676200  0.03586191  0.82333875    -0.38400
N3560       N  0.65148402  0.95983980  0.91256873    -0.38400
C3561       C  0.77784073  0.17599351  0.88327500    -0.05000
C3562       C  0.78399449  0.18918403  0.85831758    -0.02100
C3563       C  0.80544230  0.20853198  0.85662374     0.02800
C3564       C  0.82286760  0.21367229  0.87926077    -0.05000
C3565       C  0.81879394  0.19794319  0.90327801    -0.02100
C3566       C  0.79612519  0.17961100  0.90547384     0.02800
C3567       C  0.76832476  0.18280161  0.83393825     0.37500
C3568       C  0.83658153  0.20207310  0.92655948     0.37500
C3569       C  0.79102998  0.16547654  0.93106277     0.35900
C3570       C  0.80775369  0.22456071  0.83184287     0.35900
N3571       N  0.78700895  0.15415378  0.95148281    -0.38900
N3572       N  0.80794776  0.23752661  0.81212071    -0.38900
N3573       N  0.85081852  0.20530794  0.94513345    -0.38400
N3574       N  0.75626947  0.17775713  0.81424619    -0.38400
C3575       C  0.96925882  0.12926616  0.69545306    -0.05000
C3576       C  0.98390061  0.11001442  0.67900329    -0.02100
C3577       C  0.01282636  0.10719519  0.68134882     0.02800
C3578       C  0.02745739  0.12283863  0.70081491    -0.05000
C3579       C  0.01251601  0.14138665  0.71776952    -0.02100
C3580       C  0.98413088  0.14571161  0.71398558     0.02800
C3581       C  0.96936888  0.09369355  0.65888824     0.37500
C3582       C  0.02563110  0.15556520  0.74021467     0.37500
C3583       C  0.97041388  0.16741437  0.72932446     0.35900
C3584       C  0.02710808  0.08693309  0.66479693     0.35900
N3585       N  0.95990394  0.18526838  0.74110708    -0.38900
N3586       N  0.03784711  0.07044483  0.65134929    -0.38900
N3587       N  0.03438230  0.16690329  0.75906041    -0.38400
N3588       N  0.95780943  0.08070413  0.64278606    -0.38400
C3589       C  0.87913180  0.96905875  0.69879640    -0.05000
C3590       C  0.86731629  0.98306457  0.67657270    -0.02100
C3591       C  0.85816433  0.01026158  0.67984697     0.02800
C3592       C  0.86725974  0.02613502  0.70207218    -0.05000
C3593       C  0.88293231  0.01340055  0.72264052    -0.02100
C3594       C  0.88788597  0.98483193  0.72168068     0.02800
C3595       C  0.86726029  0.97060865  0.64954520     0.37500
C3596       C  0.89250723  0.02945409  0.74578948     0.37500
C3597       C  0.90213104  0.97217387  0.74428198     0.35900
C3598       C  0.83663845  0.02033818  0.66250548     0.35900
N3599       N  0.91355815  0.96222506  0.76235758    -0.38900
N3600       N  0.81797800  0.02720156  0.64982511    -0.38900
N3601       N  0.90010697  0.04220327  0.76428943    -0.38400
N3602       N  0.86820595  0.96098679  0.62781662    -0.38400
C3603       C  0.82404452  0.07782387  0.61149992    -0.05000
C3604       C  0.83483282  0.05429398  0.59810050    -0.02100
C3605       C  0.81892882  0.03997740  0.57824039     0.02800
C3606       C  0.79203400  0.04893479  0.57193443    -0.05000
C3607       C  0.78263479  0.07379770  0.58335135    -0.02100
C3608       C  0.79920905  0.08885527  0.60147393     0.02800
C3609       C  0.86205514  0.04473609  0.60486727     0.37500
C3610       C  0.75659177  0.08540198  0.57501880     0.37500
C3611       C  0.79262969  0.11754282  0.60505553     0.35900
C3612       C  0.82998644  0.01578348  0.56478088     0.35900
N3613       N  0.78630979  0.14039952  0.60477653    -0.38900
N3614       N  0.83891991  0.99655435  0.55391671    -0.38900
N3615       N  0.73626126  0.09581105  0.56888450    -0.38400
N3616       N  0.88383797  0.03715932  0.61024473    -0.38400
C3617       C  0.82259104  0.09886620  0.77802603    -0.05000
C3618       C  0.82855258  0.10905726  0.80448003    -0.02100
C3619       C  0.80788357  0.10945148  0.82537292     0.02800
C3620       C  0.78069565  0.10140877  0.81931499    -0.05000
C3621       C  0.77536496  0.08988801  0.79320047    -0.02100
C3622       C  0.79662289  0.08692245  0.77362358     0.02800
C3623       C  0.85562695  0.11965208  0.81007220     0.37500
C3624       C  0.74777514  0.08123983  0.78608580     0.37500
C3625       C  0.79199479  0.07048030  0.74927184     0.35900
C3626       C  0.81439775  0.11913012  0.85261162     0.35900
N3627       N  0.78815473  0.05630387  0.73061834    -0.38900
N3628       N  0.82005141  0.12646754  0.87441835    -0.38900
N3629       N  0.72585613  0.07436183  0.78025127    -0.38400
N3630       N  0.87726899  0.12793661  0.81496100    -0.38400
C3631       C  0.88768938  0.22844357  0.80472047    -0.05000
C3632       C  0.90558282  0.20531594  0.80605462    -0.02100
C3633       C  0.90444602  0.18369541  0.78614653     0.02800
C3634       C  0.88468590  0.18388962  0.76493953    -0.05000
C3635       C  0.86538735  0.20573465  0.76522352    -0.02100
C3636       C  0.86858013  0.22868712  0.78288796     0.02800
C3637       C  0.92673589  0.20435872  0.82667841     0.37500
C3638       C  0.84186780  0.20503097  0.74714630     0.37500
C3639       C  0.85334865  0.25331836  0.77647325     0.35900
C3640       C  0.92404555  0.16137780  0.78767327     0.35900
N3641       N  0.84137108  0.27283273  0.77062085    -0.38900
N3642       N  0.93965516  0.14358604  0.78910234    -0.38900
N3643       N  0.82312789  0.20457103  0.73274925    -0.38400
N3644       N  0.94381898  0.20354290  0.84297020    -0.38400
C3645       C  0.51460800  0.21054464  0.61200414    -0.05000
C3646       C  0.49707822  0.22898698  0.62621090    -0.02100
C3647       C  0.46850612  0.22858831  0.62199391     0.02800
C3648       C  0.45616869  0.20612813  0.60840601    -0.05000
C3649       C  0.47358709  0.18692855  0.59479019    -0.02100
C3650       C  0.50261781  0.19020719  0.59519528     0.02800
C3651       C  0.50769189  0.24620345  0.64791998     0.37500
C3652       C  0.46176456  0.16357900  0.58070797     0.37500
C3653       C  0.52017060  0.17152366  0.57987028     0.35900
C3654       C  0.45201824  0.25110435  0.63260301     0.35900
N3655       N  0.53424796  0.15673830  0.56752116    -0.38900
N3656       N  0.43913865  0.26956074  0.64037724    -0.38900
N3657       N  0.45235771  0.14476002  0.56972213    -0.38400
N3658       N  0.51524643  0.25883958  0.66648017    -0.38400
C3659       C  0.62923681  0.20038724  0.47076995    -0.05000
C3660       C  0.61848319  0.17679838  0.48395393    -0.02100
C3661       C  0.61350105  0.17675127  0.51270982     0.02800
C3662       C  0.61984750  0.20007967  0.52886456    -0.05000
C3663       C  0.62986434  0.22392173  0.51521534    -0.02100
C3664       C  0.63315753  0.22432044  0.48644061     0.02800
C3665       C  0.61128044  0.15281801  0.46785739     0.37500
C3666       C  0.63692435  0.24860395  0.53032880     0.37500
C3667       C  0.63758933  0.25029747  0.47271027     0.35900
C3668       C  0.60137194  0.15277515  0.52543430     0.35900
N3669       N  0.64050971  0.27115863  0.46190575    -0.38900
N3670       N  0.59172482  0.13357112  0.53546693    -0.38900
N3671       N  0.64253070  0.26859017  0.54186779    -0.38400
N3672       N  0.60505040  0.13357572  0.45540878    -0.38400
C3673       C  0.71750166  0.16266573  0.65450234    -0.05000
C3674       C  0.72773955  0.13692609  0.66346447    -0.02100
C3675       C  0.75598726  0.13289810  0.66741559     0.02800
C3676       C  0.77487265  0.15429787  0.66291448    -0.05000
C3677       C  0.76499093  0.18040215  0.65581024    -0.02100
C3678       C  0.73643841  0.18474345  0.65208085     0.02800
C3679       C  0.70982736  0.11389473  0.66939519     0.37500
C3680       C  0.78413785  0.20296247  0.65303517     0.37500
C3681       C  0.72675904  0.21240127  0.64784088     0.35900
C3682       C  0.76535974  0.10596388  0.67565417     0.35900
N3683       N  0.71950760  0.23479752  0.64527543    -0.38900
N3684       N  0.77140802  0.08400447  0.68199268    -0.38900
N3685       N  0.79925452  0.22112178  0.65089769    -0.38400
N3686       N  0.69684780  0.09481284  0.67483365    -0.38400
C3687       C  0.65867235  0.15933273  0.78042635    -0.05000
C3688       C  0.63878573  0.14434695  0.76626209    -0.02100
C3689       C  0.62659651  0.15523792  0.74289678     0.02800
C3690       C  0.64065950  0.17529536  0.72699791    -0.05000
C3691       C  0.66429995  0.18748017  0.73893311    -0.02100
C3692       C  0.67150612  0.18132630  0.76652475     0.02800
C3693       C  0.63675243  0.11512922  0.77045918     0.37500
C3694       C  0.68168754  0.20587191  0.72349169     0.37500
C3695       C  0.69227120  0.19735065  0.78034060     0.35900
C3696       C  0.59937832  0.14552156  0.73621036     0.35900
N3697       N  0.70858493  0.21049559  0.79138743    -0.38900
N3698       N  0.57730264  0.13855540  0.73115241    -0.38900
N3699       N  0.69698451  0.22005511  0.71213734    -0.38400
N3700       N  0.63654944  0.09150402  0.77222495    -0.38400
C3701       C  0.66455975  0.11389829  0.57574403    -0.05000
C3702       C  0.66747447  0.08896548  0.59027154    -0.02100
C3703       C  0.67941776  0.06577006  0.57709152     0.02800
C3704       C  0.68268463  0.06539833  0.54828174    -0.05000
C3705       C  0.67250575  0.08780573  0.53370214    -0.02100
C3706       C  0.66837901  0.11306405  0.54706862     0.02800
C3707       C  0.65852187  0.08692223  0.61848471     0.37500
C3708       C  0.65570324  0.08218493  0.51026094     0.37500
C3709       C  0.66913167  0.13776939  0.53096518     0.35900
C3710       C  0.68958313  0.04332259  0.59337697     0.35900
N3711       N  0.67129438  0.15748881  0.51811006    -0.38900
N3712       N  0.69793616  0.02585898  0.60687719    -0.38900
N3713       N  0.64007248  0.07792516  0.49308011    -0.38400
N3714       N  0.65032072  0.08451628  0.64064532    -0.38400
C3715       C  0.53075240  0.35943521  0.78766746    -0.05000
C3716       C  0.51665634  0.38199997  0.77620489    -0.02100
C3717       C  0.48773070  0.38222219  0.77502446     0.02800
C3718       C  0.47223152  0.35953121  0.78468835    -0.05000
C3719       C  0.48655020  0.33670480  0.79564881    -0.02100
C3720       C  0.51547277  0.33643409  0.79651069     0.02800
C3721       C  0.53180829  0.40471156  0.76420369     0.37500
C3722       C  0.47196333  0.31348645  0.80726514     0.37500
C3723       C  0.52920633  0.31278242  0.80808901     0.35900
C3724       C  0.47433312  0.40600095  0.76337318     0.35900
N3725       N  0.53988108  0.29391300  0.81749813    -0.38900
N3726       N  0.46385957  0.42512696  0.75423552    -0.38900
N3727       N  0.46098067  0.29463143  0.81655976    -0.38400
N3728       N  0.54378802  0.42277059  0.75451962    -0.38400
C3729       C  0.63228632  0.46759021  0.79279777    -0.05000
C3730       C  0.61637563  0.48234305  0.81213859    -0.02100
C3731       C  0.61579842  0.51117158  0.81140172     0.02800
C3732       C  0.63295452  0.52557109  0.79274518    -0.05000
C3733       C  0.64866168  0.51054145  0.77316820    -0.02100
C3734       C  0.64739965  0.48176774  0.77258601     0.02800
C3735       C  0.60078689  0.46789946  0.83306863     0.37500
C3736       C  0.66498966  0.52431287  0.75233370     0.37500
C3737       C  0.65971306  0.46701295  0.74963237     0.35900
C3738       C  0.59668363  0.52564371  0.82926134     0.35900
N3739       N  0.66900892  0.45590636  0.73068161    -0.38900
N3740       N  0.58069871  0.53700828  0.84284960    -0.38900
N3741       N  0.67818409  0.53474268  0.73553436    -0.38400
N3742       N  0.58841058  0.45634973  0.84974963    -0.38400
C3743       C  0.72950550  0.36674595  0.83344256    -0.05000
C3744       C  0.74286395  0.34923506  0.81435384    -0.02100
C3745       C  0.76806855  0.33685472  0.82112147     0.02800
C3746       C  0.78017573  0.34257770  0.84664485    -0.05000
C3747       C  0.76517582  0.35747618  0.86647927    -0.02100
C3748       C  0.74065654  0.37058342  0.85960740     0.02800
C3749       C  0.73055641  0.34333923  0.78806082     0.37500
C3750       C  0.77146471  0.35462170  0.89511979     0.37500
C3751       C  0.72623652  0.38642423  0.88047335     0.35900
C3752       C  0.78075520  0.31738950  0.80237479     0.35900
N3753       N  0.71579823  0.39839048  0.89824316    -0.38900
N3754       N  0.79040025  0.30167007  0.78727318    -0.38900
N3755       N  0.77374489  0.35137488  0.91837731    -0.38400
N3756       N  0.72125864  0.33815614  0.76693695    -0.38400
C3757       C  0.65745516  0.28438192  0.85124322    -0.05000
C3758       C  0.64165760  0.26200376  0.84212466    -0.02100
C3759       C  0.64742801  0.23540343  0.85121656     0.02800
C3760       C  0.66994043  0.23052287  0.86874126    -0.05000
C3761       C  0.68552913  0.25322183  0.87822697    -0.02100
C3762       C  0.67890234  0.28009539  0.86985924     0.02800
C3763       C  0.61863584  0.26639219  0.82390180     0.37500
C3764       C  0.70884180  0.24916646  0.89600340     0.37500
C3765       C  0.69449794  0.30325925  0.87999987     0.35900
C3766       C  0.62892988  0.21359240  0.84319779     0.35900
N3767       N  0.70687019  0.32166242  0.88838326    -0.38900
N3768       N  0.61343066  0.19705288  0.83632818    -0.38900
N3769       N  0.72745399  0.24602153  0.91018434    -0.38400
N3770       N  0.60038755  0.26975590  0.80931783    -0.38400
C3771       C  0.61077632  0.31624789  0.72174484    -0.05000
C3772       C  0.63085662  0.29619063  0.71478365    -0.02100
C3773       C  0.62533279  0.27640805  0.69447529     0.02800
C3774       C  0.59960320  0.27553782  0.68179159    -0.05000
C3775       C  0.58197959  0.29823690  0.68467236    -0.02100
C3776       C  0.58688855  0.31803818  0.70530768     0.02800
C3777       C  0.65752861  0.29608573  0.72775447     0.37500
C3778       C  0.56022280  0.30252573  0.66519305     0.37500
C3779       C  0.56680995  0.33961182  0.70971872     0.35900
C3780       C  0.64711483  0.25916873  0.68365382     0.35900
N3781       N  0.55067157  0.35675067  0.71306682    -0.38900
N3782       N  0.66425744  0.24616473  0.67344762    -0.38900
N3783       N  0.54352654  0.30703271  0.64914886    -0.38400
N3784       N  0.67882133  0.29580512  0.73802810    -0.38400
C3785       C  0.79317028  0.46711622  0.62899060    -0.05000
C3786       C  0.80366309  0.48059180  0.65255831    -0.02100
C3787       C  0.80235622  0.50940973  0.65520817     0.02800
C3788       C  0.79229075  0.52551711  0.63362834    -0.05000
C3789       C  0.78049905  0.51214621  0.61068871    -0.02100
C3790       C  0.78021860  0.48323337  0.60882314     0.02800
C3791       C  0.81450725  0.46567805  0.67551931     0.37500
C3792       C  0.76710650  0.52793337  0.58952243     0.37500
C3793       C  0.76532221  0.47028585  0.58662156     0.35900
C3794       C  0.81238078  0.52236709  0.68010699     0.35900
N3795       N  0.75263511  0.46025905  0.56933081    -0.38900
N3796       N  0.82041487  0.53237656  0.70002872    -0.38900
N3797       N  0.75637289  0.54039600  0.57261576    -0.38400
N3798       N  0.82333841  0.45681895  0.69549281    -0.38400
C3799       C  0.77986023  0.37477580  0.52465339    -0.05000
C3800       C  0.78313171  0.40071124  0.51164855    -0.02100
C3801       C  0.77989292  0.40350674  0.48269355     0.02800
C3802       C  0.77666110  0.38014835  0.46571157    -0.05000
C3803       C  0.77849669  0.35426864  0.47856256    -0.02100
C3804       C  0.77613346  0.35167728  0.50725290     0.02800
C3805       C  0.79312092  0.42396626  0.52716569     0.37500
C3806       C  0.78890596  0.33070529  0.46360202     0.37500
C3807       C  0.77101391  0.32452309  0.51817715     0.35900
C3808       C  0.78325606  0.43010213  0.47003812     0.35900
N3809       N  0.76690519  0.30266986  0.52631810    -0.38900
N3810       N  0.78630575  0.45132788  0.46001273    -0.38900
N3811       N  0.79841086  0.31151991  0.45319993    -0.38400
N3812       N  0.80212992  0.44241518  0.53905772    -0.38400
C3813       C  0.84424002  0.34228380  0.71305927    -0.05000
C3814       C  0.82766697  0.34763675  0.73654383    -0.02100
C3815       C  0.83902624  0.34634617  0.76300511     0.02800
C3816       C  0.86508744  0.33424708  0.76717824    -0.05000
C3817       C  0.88093424  0.32674110  0.74365372    -0.02100
C3818       C  0.87118648  0.33201061  0.71702511     0.02800
C3819       C  0.79911332  0.35552366  0.73402637     0.37500
C3820       C  0.90781010  0.31422045  0.74623578     0.37500
C3821       C  0.88919473  0.32626530  0.69374887     0.35900
C3822       C  0.82540606  0.36147413  0.78489781     0.35900
N3823       N  0.90371667  0.32184442  0.67532295    -0.38900
N3824       N  0.81468806  0.37461555  0.80166965    -0.38900
N3825       N  0.92929400  0.30429189  0.74795134    -0.38400
N3826       N  0.77614582  0.36126763  0.73256719    -0.38400
C3827       C  0.84810709  0.28019871  0.64368026    -0.05000
C3828       C  0.85164665  0.27181065  0.67094461    -0.02100
C3829       C  0.86608861  0.24764152  0.67625854     0.02800
C3830       C  0.86869781  0.22758160  0.65561430    -0.05000
C3831       C  0.86131121  0.23431571  0.62852065    -0.02100
C3832       C  0.85299721  0.26120336  0.62233063     0.02800
C3833       C  0.83407609  0.28244354  0.69249164     0.37500
C3834       C  0.86141019  0.21410411  0.60675221     0.37500
C3835       C  0.84692326  0.26833065  0.59421017     0.35900
C3836       C  0.87914080  0.24427198  0.70246798     0.35900
N3837       N  0.84187144  0.27326896  0.57167118    -0.38900
N3838       N  0.89107262  0.24242650  0.72272021    -0.38900
N3839       N  0.86011629  0.19949033  0.58807824    -0.38400
N3840       N  0.81881265  0.28870906  0.70974782    -0.38400
C3841       C  0.68732838  0.38834556  0.73067699    -0.05000
C3842       C  0.71103720  0.40461460  0.73491171    -0.02100
C3843       C  0.73189587  0.40598072  0.71454832     0.02800
C3844       C  0.73090000  0.38851281  0.69129964    -0.05000
C3845       C  0.70831911  0.37038336  0.68901362    -0.02100
C3846       C  0.68532651  0.37326221  0.70627029     0.02800
C3847       C  0.71347664  0.42173731  0.75910582     0.37500
C3848       C  0.71027310  0.34571683  0.67251461     0.37500
C3849       C  0.65919327  0.36307537  0.69697388     0.35900
C3850       C  0.75438812  0.42501443  0.71826518     0.35900
N3851       N  0.63854203  0.35636816  0.68762592    -0.38900
N3852       N  0.77207264  0.44034350  0.72199262    -0.38900
N3853       N  0.71200545  0.32502630  0.66095661    -0.38400
N3854       N  0.71649335  0.43646477  0.77749415    -0.38400
C3855       C  0.71898235  0.30854385  0.59817675    -0.05000
C3856       C  0.69111393  0.31539138  0.60244425    -0.02100
C3857       C  0.67082495  0.29457398  0.60343353     0.02800
C3858       C  0.67783812  0.26654437  0.59839741    -0.05000
C3859       C  0.70515214  0.26061624  0.58981236    -0.02100
C3860       C  0.72565169  0.28115032  0.59081799     0.02800
C3861       C  0.68334986  0.34372348  0.60746229     0.37500
C3862       C  0.71283628  0.23326905  0.58061923     0.37500
C3863       C  0.75386593  0.27377757  0.58433867     0.35900
C3864       C  0.64271307  0.30252879  0.60967789     0.35900
N3865       N  0.77631584  0.26765937  0.57931835    -0.38900
N3866       N  0.62037874  0.30898050  0.61484781    -0.38900
N3867       N  0.71911549  0.21155996  0.57316462    -0.38400
N3868       N  0.67705018  0.36626877  0.61154355    -0.38400
C3869       C  0.56054301  0.69549042  0.93442306    -0.05000
C3870       C  0.57433305  0.70973936  0.91336228    -0.02100
C3871       C  0.58125937  0.69671352  0.88827124     0.02800
C3872       C  0.57799477  0.66779983  0.88464954    -0.05000
C3873       C  0.56663440  0.65295223  0.90706033    -0.02100
C3874       C  0.55670558  0.66690366  0.93098075     0.02800
C3875       C  0.58059529  0.73856908  0.91627554     0.37500
C3876       C  0.56449309  0.62338276  0.90567835     0.37500
C3877       C  0.54186489  0.65185406  0.95192084     0.35900
C3878       C  0.59108115  0.71419971  0.86618308     0.35900
N3879       N  0.52988146  0.63979487  0.96851756    -0.38900
N3880       N  0.59846485  0.72862239  0.84886295    -0.38900
N3881       N  0.56302577  0.59971471  0.90515215    -0.38400
N3882       N  0.58687705  0.76138888  0.91615557    -0.38400
C3883       C  0.56665914  0.80539103  0.95474406    -0.05000
C3884       C  0.59451812  0.80074691  0.96154809    -0.02100
C3885       C  0.61557688  0.81623325  0.94885199     0.02800
C3886       C  0.60910568  0.83497004  0.92803575    -0.05000
C3887       C  0.58147360  0.84332695  0.92565805    -0.02100
C3888       C  0.56022252  0.82805568  0.93824946     0.02800
C3889       C  0.60235504  0.77770582  0.97829379     0.37500
C3890       C  0.57525292  0.86935859  0.91317257     0.37500
C3891       C  0.53176436  0.83535204  0.93384955     0.35900
C3892       C  0.64380533  0.81262840  0.95711195     0.35900
N3893       N  0.50905705  0.84120162  0.93035110    -0.38900
N3894       N  0.66622097  0.81004551  0.96423102    -0.38900
N3895       N  0.56989914  0.89075602  0.90465857    -0.38400
N3896       N  0.61025453  0.75923496  0.99069422    -0.38400
C3897       C  0.44935996  0.68426797  0.92641189    -0.05000
C3898       C  0.46236764  0.68408709  0.90010600    -0.02100
C3899       C  0.44989873  0.67116340  0.87747056     0.02800
C3900       C  0.42632181  0.65470073  0.88097083    -0.05000
C3901       C  0.41607806  0.65100026  0.90818189    -0.02100
C3902       C  0.42700866  0.66630993  0.93053213     0.02800
C3903       C  0.48820071  0.69827600  0.89537566     0.37500
C3904       C  0.39185578  0.63471756  0.91351304     0.37500
C3905       C  0.41349088  0.66527799  0.95714282     0.35900
C3906       C  0.46022848  0.67738272  0.85023566     0.35900
N3907       N  0.40230446  0.66453496  0.97816355    -0.38900
N3908       N  0.46861374  0.68396423  0.82902552    -0.38900
N3909       N  0.37232198  0.62299124  0.92021706    -0.38400
N3910       N  0.50863368  0.70944776  0.89060586    -0.38400
C3911       C  0.43621488  0.80609420  0.93682262    -0.05000
C3912       C  0.41756595  0.82019734  0.95397960    -0.02100
C3913       C  0.39129095  0.82714054  0.94446159     0.02800
C3914       C  0.38525541  0.82456993  0.91638303    -0.05000
C3915       C  0.40641259  0.81518802  0.89824151    -0.02100
C3916       C  0.43116697  0.80471514  0.90865854     0.02800
C3917       C  0.42630668  0.82936806  0.98070370     0.37500
C3918       C  0.40279309  0.81388438  0.86898766     0.37500
C3919       C  0.45064656  0.79064797  0.89070193     0.35900
C3920       C  0.37038950  0.83534973  0.96401239     0.35900
N3921       N  0.46610421  0.77926316  0.87650385    -0.38900
N3922       N  0.35396528  0.84082558  0.98038007    -0.38900
N3923       N  0.40220925  0.81185852  0.84540812    -0.38400
N3924       N  0.43360853  0.83828487  0.00138770    -0.38400
C3925       C  0.44936414  0.69700624  0.06843367    -0.05000
C3926       C  0.44044574  0.66950986  0.06801519    -0.02100
C3927       C  0.43074558  0.65677772  0.09236661     0.02800
C3928       C  0.43074515  0.67121715  0.11796547    -0.05000
C3929       C  0.44417925  0.69682411  0.11882433    -0.02100
C3930       C  0.45134760  0.71045600  0.09423385     0.02800
C3931       C  0.44045150  0.65444196  0.04229798     0.37500
C3932       C  0.45026979  0.70962326  0.14501376     0.37500
C3933       C  0.45802044  0.73923399  0.09623617     0.35900
C3934       C  0.42071892  0.62880426  0.09055940     0.35900
N3935       N  0.46252565  0.76218206  0.10026356    -0.38900
N3936       N  0.41267637  0.60652457  0.08901741    -0.38900
N3937       N  0.45544375  0.71963055  0.16589696    -0.38400
N3938       N  0.44054023  0.64210885  0.02196578    -0.38400
C3939       C  0.42988518  0.80066462  0.04996960    -0.05000
C3940       C  0.43656267  0.82287619  0.06742026    -0.02100
C3941       C  0.41549854  0.84024123  0.07875942     0.02800
C3942       C  0.38737948  0.83652913  0.07168959    -0.05000
C3943       C  0.38139129  0.81575334  0.05218114    -0.02100
C3944       C  0.40183097  0.79725669  0.04282314     0.02800
C3945       C  0.46506645  0.82752811  0.07416067     0.37500
C3946       C  0.35367047  0.81265599  0.04188254     0.37500
C3947       C  0.39335241  0.77390715  0.02626710     0.35900
C3948       C  0.42285546  0.85947816  0.10005438     0.35900
N3949       N  0.38637084  0.75540089  0.01312097    -0.38900
N3950       N  0.42973324  0.87401823  0.11746927    -0.38900
N3951       N  0.33173005  0.80973232  0.03351005    -0.38400
N3952       N  0.48786105  0.83116587  0.07951718    -0.38400
C3953       C  0.54384285  0.69577176  0.07575084    -0.05000
C3954       C  0.56204884  0.67483977  0.06643636    -0.02100
C3955       C  0.57876304  0.66059097  0.08523865     0.02800
C3956       C  0.57621714  0.66551643  0.11379901    -0.05000
C3957       C  0.55511605  0.68325191  0.12317118    -0.02100
C3958       C  0.54047107  0.69948713  0.10457986     0.02800
C3959       C  0.56548451  0.66909680  0.03740696     0.37500
C3960       C  0.54881873  0.68635481  0.15215810     0.37500
C3961       C  0.52399602  0.72159357  0.11618474     0.35900
C3962       C  0.59888852  0.64110278  0.07485974     0.35900
N3963       N  0.51205617  0.73939502  0.12658302    -0.38900
N3964       N  0.61505491  0.62583653  0.06629124    -0.38900
N3965       N  0.54280651  0.68961072  0.17493211    -0.38400
N3966       N  0.56856846  0.66444850  0.01429657    -0.38400
C3967       C  0.62343446  0.81886387  0.07337456    -0.05000
C3968       C  0.62327803  0.79001174  0.07286899    -0.02100
C3969       C  0.60059300  0.77569177  0.06246034     0.02800
C3970       C  0.57772103  0.78992879  0.05155634    -0.05000
C3971       C  0.57782912  0.81890319  0.05208922    -0.02100
C3972       C  0.60058290  0.83329948  0.06309485     0.02800
C3973       C  0.64620323  0.77471478  0.08400155     0.37500
C3974       C  0.55512344  0.83390928  0.04050741     0.37500
C3975       C  0.60105508  0.86298563  0.06292748     0.35900
C3976       C  0.60119804  0.74596210  0.06341803     0.35900
N3977       N  0.60165313  0.88669438  0.06265192    -0.38900
N3978       N  0.60274985  0.72233643  0.06422981    -0.38900
N3979       N  0.53698703  0.84589480  0.03124092    -0.38400
N3980       N  0.66434190  0.76228210  0.09267304    -0.38400
C3981       C  0.88641479  0.57344863  0.66057316    -0.05000
C3982       C  0.88579751  0.54499745  0.66470380    -0.02100
C3983       C  0.90398707  0.53265342  0.68325100     0.02800
C3984       C  0.92749568  0.54695266  0.69223019    -0.05000
C3985       C  0.93072796  0.57457825  0.68442456    -0.02100
C3986       C  0.90951606  0.58817739  0.67029606     0.02800
C3987       C  0.86945202  0.52799058  0.64690385     0.37500
C3988       C  0.95461121  0.58990908  0.69341012     0.37500
C3989       C  0.91161677  0.61750433  0.66725177     0.35900
C3990       C  0.89596074  0.50708534  0.69566539     0.35900
N3991       N  0.91515147  0.64088424  0.66602036    -0.38900
N3992       N  0.88786398  0.48761721  0.70644094    -0.38900
N3993       N  0.97360624  0.60215629  0.70054410    -0.38400
N3994       N  0.85807794  0.51416055  0.63139907    -0.38400
C3995       C  0.94984230  0.57794340  0.79852681    -0.05000
C3996       C  0.95720994  0.60600005  0.79719251    -0.02100
C3997       C  0.94530628  0.62534830  0.81551908     0.02800
C3998       C  0.92555449  0.61713835  0.83541297    -0.05000
C3999       C  0.91920588  0.58885777  0.83757476    -0.02100
C4000       C  0.93048620  0.56963815  0.81884505     0.02800
C4001       C  0.97763346  0.61517056  0.77741181     0.37500
C4002       C  0.90047679  0.57926694  0.85883961     0.37500
C4003       C  0.92152404  0.54127147  0.82051698     0.35900
C4004       C  0.95320982  0.65387115  0.81309722     0.35900
N4005       N  0.91442498  0.51868963  0.82204217    -0.38900
N4006       N  0.96005776  0.67645473  0.81092992    -0.38900
N4007       N  0.88546510  0.57144998  0.87559338    -0.38400
N4008       N  0.99391567  0.62265453  0.76172348    -0.38400
C4009       C  0.93362553  0.44606766  0.69875041    -0.05000
C4010       C  0.91740571  0.42728749  0.71358230    -0.02100
C4011       C  0.89112709  0.42008651  0.70454071     0.02800
C4012       C  0.88337732  0.42526547  0.67730949    -0.05000
C4013       C  0.90227658  0.43982922  0.66020092    -0.02100
C4014       C  0.92662352  0.45138418  0.67134466     0.02800
C4015       C  0.92908988  0.41232344  0.73616420     0.37500
C4016       C  0.89633673  0.44400287  0.63150945     0.37500
C4017       C  0.94399227  0.46911761  0.65498962     0.35900
C4018       C  0.87195611  0.40891008  0.72425824     0.35900
N4019       N  0.95796136  0.48326841  0.64198812    -0.38900
N4020       N  0.85671774  0.40159210  0.74095511    -0.38900
N4021       N  0.89182584  0.44707397  0.60849873    -0.38400
N4022       N  0.93827403  0.39866395  0.75305281    -0.38400
C4023       C  0.91639379  0.39563509  0.83134636    -0.05000
C4024       C  0.90465614  0.41670402  0.81516824    -0.02100
C4025       C  0.92154161  0.43579738  0.80140974     0.02800
C4026       C  0.95036144  0.43428131  0.80341279    -0.05000
C4027       C  0.96165763  0.41669474  0.82305555    -0.02100
C4028       C  0.94503455  0.39668885  0.83608848     0.02800
C4029       C  0.87517826  0.41921355  0.81216546     0.37500
C4030       C  0.98904513  0.42190868  0.83296436     0.37500
C4031       C  0.95742432  0.37849525  0.85563538     0.35900
C4032       C  0.90892447  0.45745002  0.78559871     0.35900
N4033       N  0.96790829  0.36447672  0.87137456    -0.38900
N4034       N  0.89824184  0.47467573  0.77348829    -0.38900
N4035       N  0.01013983  0.42671861  0.84250940    -0.38400
N4036       N  0.85176009  0.42208026  0.80978825    -0.38400
C4037       C  0.06452085  0.43307430  0.69878382    -0.05000
C4038       C  0.09220209  0.43325816  0.70723834    -0.02100
C4039       C  0.11369341  0.42609156  0.68889028     0.02800
C4040       C  0.10803539  0.41326872  0.66357582    -0.05000
C4041       C  0.08021822  0.41066474  0.65576563    -0.02100
C4042       C  0.05869493  0.42159221  0.67269231     0.02800
C4043       C  0.09884847  0.43680115  0.73584654     0.37500
C4044       C  0.07386240  0.39746223  0.62992823     0.37500
C4045       C  0.03063428  0.42100248  0.66323238     0.35900
C4046       C  0.14174385  0.43208073  0.69646217     0.35900
N4047       N  0.00819305  0.42061887  0.65570987    -0.38900
N4048       N  0.16387137  0.43786654  0.70259943    -0.38900
N4049       N  0.06889188  0.38691418  0.60925831    -0.38400
N4050       N  0.10568820  0.43828802  0.75842665    -0.38400
C4051       C  0.05954542  0.43471380  0.80074158    -0.05000
C4052       C  0.07967859  0.43803094  0.82123256    -0.02100
C4053       C  0.08933393  0.41492889  0.83571182     0.02800
C4054       C  0.07903183  0.38850684  0.82972820    -0.05000
C4055       C  0.05525961  0.38645628  0.81384634    -0.02100
C4056       C  0.04734810  0.40831797  0.79734042     0.02800
C4057       C  0.09031364  0.46500249  0.82782651     0.37500
C4058       C  0.03779862  0.36229525  0.81542518     0.37500
C4059       C  0.02673843  0.40222252  0.77692417     0.35900
C4060       C  0.10712748  0.41892092  0.85887158     0.35900
N4061       N  0.01019129  0.39531173  0.76152172    -0.38900
N4062       N  0.12014384  0.42262950  0.87819740    -0.38900
N4063       N  0.02341103  0.34347318  0.81656220    -0.38400
N4064       N  0.09892766  0.48641728  0.83334337    -0.38400
C4065       C  0.07796159  0.53695743  0.69712454    -0.05000
C4066       C  0.10534685  0.52808672  0.70172395    -0.02100
C4067       C  0.12741247  0.53843086  0.68582346     0.02800
C4068       C  0.12257498  0.55843989  0.66571814    -0.05000
C4069       C  0.09522415  0.56363505  0.65803026    -0.02100
C4070       C  0.07309702  0.55403549  0.67417396     0.02800
C4071       C  0.11162912  0.50898044  0.72327837     0.37500
C4072       C  0.08986910  0.57820921  0.63280730     0.37500
C4073       C  0.04569237  0.56360035  0.66783334     0.35900
C4074       C  0.15502798  0.52833321  0.69031225     0.35900
N4075       N  0.02396115  0.57152467  0.66272110    -0.38900
N4076       N  0.17694724  0.51993661  0.69367805    -0.38900
N4077       N  0.08574614  0.58925442  0.61235224    -0.38400
N4078       N  0.11797306  0.49420113  0.74049159    -0.38400
C4079       C  0.07135730  0.61333116  0.83303297    -0.05000
C4080       C  0.08700231  0.59098113  0.82237972    -0.02100
C4081       C  0.07432876  0.56929201  0.80768353     0.02800
C4082       C  0.04558954  0.56744238  0.80635675    -0.05000
C4083       C  0.03017783  0.58634380  0.82210023    -0.02100
C4084       C  0.04249732  0.61060677  0.83246265     0.02800
C4085       C  0.11605219  0.58896612  0.82691823     0.37500
C4086       C  0.00456860  0.57743701  0.83403470     0.37500
C4087       C  0.02501738  0.63253907  0.84201889     0.35900
C4088       C  0.09106380  0.54811376  0.79499926     0.35900
N4089       N  0.01009308  0.64978042  0.84863979    -0.38900
N4090       N  0.10495389  0.53130886  0.78545557    -0.38900
N4091       N  0.98541078  0.56980706  0.84590232    -0.38400
N4092       N  0.13904578  0.58462700  0.83032771    -0.38400
C4093       C  0.92204726  0.71447845  0.45886950    -0.05000
C4094       C  0.91160474  0.72530346  0.43438071    -0.02100
C4095       C  0.88806074  0.71395256  0.42216694     0.02800
C4096       C  0.87593158  0.68980926  0.43235050    -0.05000
C4097       C  0.88774848  0.67752334  0.45568399    -0.02100
C4098       C  0.91032937  0.69006761  0.46915717     0.02800
C4099       C  0.92694407  0.74569084  0.41912025     0.37500
C4100       C  0.87713785  0.65163048  0.46553562     0.37500
C4101       C  0.92240484  0.67702413  0.49268469     0.35900
C4102       C  0.87804657  0.72667362  0.39772911     0.35900
N4103       N  0.93221395  0.66616878  0.51116009    -0.38900
N4104       N  0.87219072  0.73871217  0.37844030    -0.38900
N4105       N  0.86904826  0.63079386  0.47340670    -0.38400
N4106       N  0.93834432  0.76091964  0.40494914    -0.38400
C4107       C  0.95033175  0.81506705  0.43988128    -0.05000
C4108       C  0.96166845  0.83261246  0.41990957    -0.02100
C4109       C  0.94561876  0.84206425  0.39760147     0.02800
C4110       C  0.91748252  0.83513336  0.39534243    -0.05000
C4111       C  0.90552599  0.82001725  0.41736095    -0.02100
C4112       C  0.92160906  0.81106411  0.43973935     0.02800
C4113       C  0.98880194  0.84371668  0.42414610     0.37500
C4114       C  0.87694046  0.81178879  0.41660047     0.37500
C4115       C  0.90824035  0.79806274  0.46295268     0.35900
C4116       C  0.95812679  0.85984569  0.37763844     0.35900
N4117       N  0.89690034  0.78834183  0.48144579    -0.38900
N4118       N  0.96872658  0.87427130  0.36217211    -0.38900
N4119       N  0.85427617  0.80472491  0.41653058    -0.38400
N4120       N  0.00984806  0.85400475  0.42778143    -0.38400
C4121       C  0.89497175  0.67119252  0.58232794    -0.05000
C4122       C  0.88942042  0.69574259  0.56841227    -0.02100
C4123       C  0.91095474  0.71366604  0.56096113     0.02800
C4124       C  0.93883659  0.70589131  0.56417641    -0.05000
C4125       C  0.94434074  0.67935500  0.57427881    -0.02100
C4126       C  0.92267212  0.66262910  0.58431358     0.02800
C4127       C  0.86159747  0.70304817  0.56143160     0.37500
C4128       C  0.97171312  0.66799213  0.57191165     0.37500
C4129       C  0.92884636  0.63591205  0.59555572     0.35900
C4130       C  0.90361523  0.74056311  0.55089186     0.35900
N4131       N  0.93390701  0.61453406  0.60431082    -0.38900
N4132       N  0.89613435  0.76163966  0.54323958    -0.38900
N4133       N  0.99311109  0.65797355  0.56932296    -0.38400
N4134       N  0.83998902  0.70972262  0.55457920    -0.38400
C4135       C  0.94849646  0.81204823  0.57342656    -0.05000
C4136       C  0.93154851  0.83564961  0.57088879    -0.02100
C4137       C  0.92419404  0.85191465  0.59436065     0.02800
C4138       C  0.93300768  0.84457369  0.62094265    -0.05000
C4139       C  0.95272501  0.82348978  0.62281238    -0.02100
C4140       C  0.95961559  0.80683743  0.59988287     0.02800
C4141       C  0.92220993  0.84384116  0.54407154     0.37500
C4142       C  0.96611142  0.81869881  0.64882340     0.37500
C4143       C  0.97814460  0.78410418  0.60454378     0.35900
C4144       C  0.90855132  0.87684964  0.59085727     0.35900
N4145       N  0.99317889  0.76648619  0.60942232    -0.38900
N4146       N  0.89681727  0.89720259  0.58777097    -0.38900
N4147       N  0.97695923  0.81458647  0.66936101    -0.38400
N4148       N  0.91479725  0.85053560  0.52267732    -0.38400
C4149       C  0.11719293  0.66952026  0.42329438    -0.05000
C4150       C  0.10883653  0.66332892  0.45044597    -0.02100
C4151       C  0.08519319  0.67620738  0.46230960     0.02800
C4152       C  0.07202007  0.69790050  0.44857458    -0.05000
C4153       C  0.07843101  0.70172556  0.42069534    -0.02100
C4154       C  0.09906186  0.68582062  0.40775915     0.02800
C4155       C  0.12306945  0.64259451  0.46569227     0.37500
C4156       C  0.06268402  0.72080619  0.40450042     0.37500
C4157       C  0.09761035  0.68266188  0.37840200     0.35900
C4158       C  0.07309387  0.66551757  0.48723595     0.35900
N4159       N  0.09393855  0.67999370  0.35516994    -0.38900
N4160       N  0.06309208  0.65593226  0.50653190    -0.38900
N4161       N  0.05047918  0.73557809  0.39076372    -0.38400
N4162       N  0.13326602  0.62575883  0.47864226    -0.38400
C4163       C  0.07364973  0.83562702  0.37702119    -0.05000
C4164       C  0.05003170  0.81923726  0.37272171    -0.02100
C4165       C  0.03748415  0.80474520  0.39450726     0.02800
C4166       C  0.04815857  0.80621995  0.42132315    -0.05000
C4167       C  0.07116035  0.82327460  0.42599363    -0.02100
C4168       C  0.08462757  0.83651283  0.40386305     0.02800
C4169       C  0.03970620  0.81483577  0.34538781     0.37500
C4170       C  0.08238623  0.82597828  0.45336544     0.37500
C4171       C  0.11218000  0.84633219  0.40861296     0.35900
C4172       C  0.01325427  0.78839673  0.38899626     0.35900
N4173       N  0.13431237  0.85231149  0.41452911    -0.38900
N4174       N  0.99411655  0.77529151  0.38413805    -0.38900
N4175       N  0.09131020  0.82839747  0.47513599    -0.38400
N4176       N  0.03125607  0.80967976  0.32395373    -0.38400
C4177       C  0.07279674  0.70065041  0.54840324    -0.05000
C4178       C  0.06613016  0.68723329  0.57325549    -0.02100
C4179       C  0.08532845  0.66960217  0.58641599     0.02800
C4180       C  0.11315516  0.66725194  0.57688322    -0.05000
C4181       C  0.12047639  0.68376623  0.55399444    -0.02100
C4182       C  0.10053048  0.69889999  0.53926185     0.02800
C4183       C  0.04120189  0.69485015  0.58788934     0.37500
C4184       C  0.14901128  0.68829323  0.54700278     0.37500
C4185       C  0.10928230  0.71326156  0.51472618     0.35900
C4186       C  0.07636519  0.65599630  0.61129961     0.35900
N4187       N  0.11685615  0.72444236  0.49521590    -0.38900
N4188       N  0.06854947  0.64565535  0.63119252    -0.38900
N4189       N  0.17155986  0.69345712  0.54163130    -0.38400
N4190       N  0.02217353  0.70129702  0.60077384    -0.38400
C4191       C  0.05468264  0.80725864  0.56783991    -0.05000
C4192       C  0.04304755  0.82817083  0.58418466    -0.02100
C4193       C  0.05899026  0.84137319  0.60431233     0.02800
C4194       C  0.08736263  0.83577705  0.60611042    -0.05000
C4195       C  0.09968729  0.81818589  0.58625501    -0.02100
C4196       C  0.08335426  0.80395747  0.56738740     0.02800
C4197       C  0.01651783  0.83928798  0.57732769     0.37500
C4198       C  0.12919405  0.81462141  0.58437872     0.37500
C4199       C  0.09657890  0.78787383  0.54591813     0.35900
C4200       C  0.04640863  0.86195729  0.62178808     0.35900
N4201       N  0.10807089  0.77612560  0.52863819    -0.38900
N4202       N  0.03596080  0.87846683  0.63538990    -0.38900
N4203       N  0.15257845  0.81163050  0.58141939    -0.38400
N4204       N  0.99630584  0.84993478  0.57123064    -0.38400
C4205       C  0.66312110  0.42954660  0.88917304    -0.05000
C4206       C  0.65579534  0.42869654  0.91718570    -0.02100
C4207       C  0.67065274  0.44418333  0.93658315     0.02800
C4208       C  0.69414360  0.45945313  0.92826049    -0.05000
C4209       C  0.69846494  0.46365776  0.89985558    -0.02100
C4210       C  0.68233951  0.44956828  0.88044441     0.02800
C4211       C  0.63275391  0.41199889  0.92607449     0.37500
C4212       C  0.71975774  0.48211901  0.89019436     0.37500
C4213       C  0.68671757  0.45514667  0.85160085     0.35900
C4214       C  0.66137446  0.44412817  0.96489442     0.35900
N4215       N  0.69044590  0.46052600  0.82881679    -0.38900
N4216       N  0.65321067  0.44452926  0.98724379    -0.38900
N4217       N  0.73668822  0.49662528  0.88199831    -0.38400
N4218       N  0.61430382  0.39883012  0.93322598    -0.38400
C4219       C  0.83534565  0.37636124  0.92996182    -0.05000
C4220       C  0.81714883  0.37170189  0.95245010    -0.02100
C4221       C  0.80042716  0.39295838  0.96381352     0.02800
C4222       C  0.80212487  0.42007066  0.95390688    -0.05000
C4223       C  0.82199848  0.42544226  0.93307198    -0.02100
C4224       C  0.83882014  0.40408934  0.92179792     0.02800
C4225       C  0.81427939  0.34463425  0.96370703     0.37500
C4226       C  0.82464606  0.45296022  0.92228866     0.37500
C4227       C  0.85989150  0.41129528  0.90199144     0.35900
C4228       C  0.78147032  0.38666131  0.98606371     0.35900
N4229       N  0.87696655  0.41812598  0.88686382    -0.38900
N4230       N  0.76644690  0.38141788  0.00379886    -0.38900
N4231       N  0.82680828  0.47486724  0.91358030    -0.38400
N4232       N  0.81028497  0.32352811  0.97343720    -0.38400
C4233       C  0.70351710  0.54360862  0.92228819    -0.05000
C4234       C  0.67538403  0.53776731  0.91848140    -0.02100
C4235       C  0.66120992  0.54851907  0.89542391     0.02800
C4236       C  0.67567101  0.56263730  0.87423811    -0.05000
C4237       C  0.70433538  0.56690407  0.87806452    -0.02100
C4238       C  0.71651428  0.56079402  0.90323988     0.02800
C4239       C  0.66063622  0.52197597  0.93888756     0.37500
C4240       C  0.72216500  0.57809427  0.85691431     0.37500
C4241       C  0.73930338  0.57736378  0.91218353     0.35900
C4242       C  0.63176821  0.54528255  0.89421808     0.35900
N4243       N  0.75595609  0.59209766  0.92020774    -0.38900
N4244       N  0.60816785  0.54281000  0.89438796    -0.38900
N4245       N  0.73712182  0.58640029  0.84036259    -0.38400
N4246       N  0.64869464  0.50961811  0.95528452    -0.38400
C4247       C  0.81128084  0.56566663  0.95325652    -0.05000
C4248       C  0.80983023  0.56712297  0.92466474    -0.02100
C4249       C  0.81883109  0.59083315  0.91115657     0.02800
C4250       C  0.83148002  0.61249132  0.92624034    -0.05000
C4251       C  0.83779536  0.60807625  0.95408225    -0.02100
C4252       C  0.82853074  0.58399891  0.96722657     0.02800
C4253       C  0.79838760  0.54443338  0.90913880     0.37500
C4254       C  0.85468355  0.62745562  0.96889958     0.37500
C4255       C  0.84096925  0.57549894  0.99251690     0.35900
C4256       C  0.81288891  0.59324115  0.88212183     0.35900
N4257       N  0.85265754  0.56841109  0.01172697    -0.38900
N4258       N  0.80805925  0.59499468  0.85902652    -0.38900
N4259       N  0.86824248  0.64272820  0.98091220    -0.38400
N4260       N  0.78960672  0.52644023  0.89641570    -0.38400
C4261       C  0.67078868  0.43363473  0.11852411    -0.05000
C4262       C  0.68505626  0.45851304  0.12315668    -0.02100
C4263       C  0.70077262  0.47045728  0.10204267     0.02800
C4264       C  0.70013171  0.45947175  0.07520747    -0.05000
C4265       C  0.68330433  0.43641156  0.06986436    -0.02100
C4266       C  0.66809941  0.42400413  0.09130730     0.02800
C4267       C  0.68460049  0.47153708  0.15003969     0.37500
C4268       C  0.68521980  0.42251901  0.04351941     0.37500
C4269       C  0.65161377  0.39999828  0.08542010     0.35900
C4270       C  0.71995319  0.49197169  0.10915792     0.35900
N4271       N  0.63846090  0.38092819  0.08037002    -0.38900
N4272       N  0.73598164  0.50801487  0.11602082    -0.38900
N4273       N  0.68748675  0.41082413  0.02291425    -0.38400
N4274       N  0.68456430  0.48209847  0.17134211    -0.38400
C4275       C  0.83181556  0.38317281  0.06674893    -0.05000
C4276       C  0.83828789  0.39094946  0.03970234    -0.02100
C4277       C  0.82705213  0.41535362  0.02915242     0.02800
C4278       C  0.80579240  0.42888704  0.04370668    -0.05000
C4279       C  0.80134556  0.42251859  0.07148387    -0.02100
C4280       C  0.81588758  0.40097719  0.08342636     0.02800
C4281       C  0.85721669  0.37461679  0.02333035     0.37500
C4282       C  0.78315182  0.43894980  0.08859776     0.37500
C4283       C  0.81507675  0.39841370  0.11302798     0.35900
C4284       C  0.83976897  0.42826501  0.00567853     0.35900
N4285       N  0.81408526  0.39840291  0.13673327    -0.38900
N4286       N  0.85112881  0.43902285  0.98780022    -0.38900
N4287       N  0.76929911  0.45138734  0.10351191    -0.38400
N4288       N  0.87226610  0.36148946  0.01025663    -0.38400
C4289       C  0.70026708  0.54957311  0.07421183    -0.05000
C4290       C  0.67106457  0.55044423  0.07450378    -0.02100
C4291       C  0.65613822  0.56301945  0.09683296     0.02800
C4292       C  0.66987462  0.57251415  0.12071823    -0.05000
C4293       C  0.69915493  0.57039237  0.12039107    -0.02100
C4294       C  0.71371902  0.56200302  0.09665065     0.02800
C4295       C  0.65617455  0.53849129  0.05185609     0.37500
C4296       C  0.71554358  0.57629377  0.14447130     0.37500
C4297       C  0.74301636  0.56730976  0.09579849     0.35900
C4298       C  0.62665757  0.56579608  0.09496935     0.35900
N4299       N  0.76617941  0.57220284  0.09671994    -0.38900
N4300       N  0.60313173  0.56811402  0.09292164    -0.38900
N4301       N  0.72909069  0.58026261  0.16341405    -0.38400
N4302       N  0.64427007  0.52891369  0.03376996    -0.38400
C4303       C  0.80428857  0.57303213  0.04809575    -0.05000
C4304       C  0.80224002  0.60156589  0.04364440    -0.02100
C4305       C  0.81504897  0.62036169  0.06156727     0.02800
C4306       C  0.83095316  0.61094858  0.08378923    -0.05000
C4307       C  0.83529221  0.58240141  0.08646523    -0.02100
C4308       C  0.82144277  0.56355832  0.06936673     0.02800
C4309       C  0.78710880  0.61176401  0.02034273     0.37500
C4310       C  0.85463083  0.57210002  0.10628276     0.37500
C4311       C  0.82324569  0.53448607  0.07534489     0.35900
C4312       C  0.81046872  0.64938103  0.05750440     0.35900
N4313       N  0.82445496  0.51136288  0.08036485    -0.38900
N4314       N  0.80629671  0.67236685  0.05369454    -0.38900
N4315       N  0.87034754  0.56321684  0.12144250    -0.38400
N4316       N  0.77526138  0.61994347  0.00166435    -0.38400
C4317       C  0.44477107  0.92555769  0.70173591    -0.05000
C4318       C  0.42517913  0.92906767  0.68074862    -0.02100
C4319       C  0.41562587  0.90626266  0.66523259     0.02800
C4320       C  0.42654571  0.87966537  0.66929480    -0.05000
C4321       C  0.44774186  0.87648033  0.68832136    -0.02100
C4322       C  0.45663782  0.89889942  0.70449263     0.02800
C4323       C  0.41561653  0.95622402  0.67385136     0.37500
C4324       C  0.46037149  0.84970011  0.69154137     0.37500
C4325       C  0.47796020  0.89348123  0.72412142     0.35900
C4326       C  0.39323188  0.91009183  0.64628191     0.35900
N4327       N  0.49526961  0.88794925  0.73911256    -0.38900
N4328       N  0.37517381  0.91323590  0.63141497    -0.38900
N4329       N  0.47054051  0.82846883  0.69424572    -0.38400
N4330       N  0.40805266  0.97765788  0.66732833    -0.38400
C4331       C  0.44154446  0.92723355  0.80716313    -0.05000
C4332       C  0.42394097  0.94268880  0.82447897    -0.02100
C4333       C  0.39967401  0.93091282  0.83571137     0.02800
C4334       C  0.39203633  0.90347312  0.82898929    -0.05000
C4335       C  0.41117677  0.88765876  0.81335312    -0.02100
C4336       C  0.43657170  0.89885707  0.80477643     0.02800
C4337       C  0.43234820  0.96979681  0.83323740     0.37500
C4338       C  0.40454421  0.86055904  0.80334547     0.37500
C4339       C  0.45790999  0.88047947  0.79487589     0.35900
C4340       C  0.38277557  0.94747940  0.85406332     0.35900
N4341       N  0.47477801  0.86496840  0.78842482    -0.38900
N4342       N  0.36936885  0.96082630  0.86863376    -0.38900
N4343       N  0.40041125  0.83914169  0.79404926    -0.38400
N4344       N  0.43926507  0.99098653  0.84136072    -0.38400
C4345       C  0.54723952  0.91524830  0.70611512    -0.05000
C4346       C  0.54634741  0.91308988  0.67709461    -0.02100
C4347       C  0.55728813  0.88961276  0.66307945     0.02800
C4348       C  0.56833735  0.86719588  0.67779843    -0.05000
C4349       C  0.56752511  0.86894517  0.70702772    -0.02100
C4350       C  0.55864463  0.89302451  0.72066006     0.02800
C4351       C  0.53377477  0.93480264  0.66147941     0.37500
C4352       C  0.57596231  0.84626334  0.72417453     0.37500
C4353       C  0.56263221  0.89486169  0.75008685     0.35900
C4354       C  0.55642739  0.88846918  0.63343888     0.35900
N4355       N  0.56619463  0.89551860  0.77345937    -0.38900
N4356       N  0.55576063  0.88790761  0.60975069    -0.38900
N4357       N  0.58214822  0.82864676  0.73861857    -0.38400
N4358       N  0.52368928  0.95209146  0.64895433    -0.38400
C4359       C  0.57241936  0.95256182  0.81056474    -0.05000
C4360       C  0.59993775  0.96206317  0.80914459    -0.02100
C4361       C  0.62086375  0.94943827  0.82433237     0.02800
C4362       C  0.61572296  0.92503103  0.83901408    -0.05000
C4363       C  0.58854777  0.91451786  0.83899423    -0.02100
C4364       C  0.56671579  0.92954928  0.82716730     0.02800
C4365       C  0.60778986  0.98408751  0.79083062     0.37500
C4366       C  0.58371436  0.88597706  0.84535045     0.37500
C4367       C  0.53889935  0.91918901  0.82951915     0.35900
C4368       C  0.64849094  0.96009993  0.82133747     0.35900
N4369       N  0.51683036  0.91067586  0.83175822    -0.38900
N4370       N  0.66983937  0.96935895  0.81663698    -0.38900
N4371       N  0.57902852  0.86302142  0.84892035    -0.38400
N4372       N  0.61552577  0.00103148  0.77622102    -0.38400
C4373       C  0.42301655  0.10647173  0.67309046    -0.05000
C4374       C  0.45093157  0.10941719  0.68010376    -0.02100
C4375       C  0.46426978  0.08933753  0.69597372     0.02800
C4376       C  0.45210231  0.06326689  0.70077069    -0.05000
C4377       C  0.42431782  0.05990941  0.69317097    -0.02100
C4378       C  0.40965537  0.08158915  0.68033771     0.02800
C4379       C  0.46605848  0.13368612  0.67168886     0.37500
C4380       C  0.40943785  0.03599221  0.70259868     0.37500
C4381       C  0.38021780  0.07896080  0.67726400     0.35900
C4382       C  0.48907856  0.09748155  0.70988987     0.35900
N4383       N  0.35675861  0.07605587  0.67516769    -0.38900
N4384       N  0.50818394  0.10563029  0.72118946    -0.38900
N4385       N  0.39711120  0.01742670  0.71071666    -0.38400
N4386       N  0.47811628  0.15296502  0.66489107    -0.38400
C4387       C  0.38738475  0.07442806  0.83254819    -0.05000
C4388       C  0.37939060  0.05411164  0.81338292    -0.02100
C4389       C  0.39921251  0.03687858  0.80054433     0.02800
C4390       C  0.42765684  0.04053496  0.80547517    -0.05000
C4391       C  0.43519821  0.05895398  0.82692074    -0.02100
C4392       C  0.41508476  0.07506037  0.84073251     0.02800
C4393       C  0.35075566  0.05083531  0.80633951     0.37500
C4394       C  0.46357480  0.06165163  0.83529685     0.37500
C4395       C  0.42268030  0.09058660  0.86492136     0.35900
C4396       C  0.38990241  0.01463388  0.78310138     0.35900
N4397       N  0.42914197  0.10193911  0.88471460    -0.38900
N4398       N  0.38229635  0.99667290  0.76956855    -0.38900
N4399       N  0.48611646  0.06387490  0.84223081    -0.38400
N4400       N  0.32806324  0.04752453  0.80043366    -0.38400
C4401       C  0.55269420  0.06473360  0.69782194    -0.05000
C4402       C  0.57987909  0.07225375  0.70368967    -0.02100
C4403       C  0.59308123  0.09306008  0.68868709     0.02800
C4404       C  0.57863384  0.10772674  0.66826391    -0.05000
C4405       C  0.55266412  0.09754041  0.66008382    -0.02100
C4406       C  0.54062163  0.07497405  0.67384103     0.02800
C4407       C  0.59524857  0.05764092  0.72418316     0.37500
C4408       C  0.53817896  0.10996421  0.63758857     0.37500
C4409       C  0.51644869  0.06176348  0.66283871     0.35900
C4410       C  0.62112546  0.09988875  0.69584395     0.35900
N4411       N  0.49752277  0.05094981  0.65356989    -0.38900
N4412       N  0.64338533  0.10513053  0.70200269    -0.38900
N4413       N  0.52620091  0.11973088  0.61979769    -0.38400
N4414       N  0.60889568  0.04639559  0.73973059    -0.38400
C4415       C  0.57432354  0.04751651  0.80614962    -0.05000
C4416       C  0.57819991  0.07580347  0.80188740    -0.02100
C4417       C  0.59692096  0.09079348  0.81814660     0.02800
C4418       C  0.61474223  0.07713877  0.83624605    -0.05000
C4419       C  0.60696887  0.05037644  0.84415225    -0.02100
C4420       C  0.58568969  0.03629861  0.83008949     0.02800
C4421       C  0.56091300  0.09021198  0.78283252     0.37500
C4422       C  0.61732391  0.03866755  0.86894315     0.37500
C4423       C  0.57287691  0.01261525  0.84254697     0.35900
C4424       C  0.59538579  0.12039312  0.81821961     0.35900
N4425       N  0.56220091  0.99462001  0.85371609    -0.38900
N4426       N  0.59255641  0.14392261  0.81796149    -0.38900
N4427       N  0.62296043  0.02815206  0.88923283    -0.38400
N4428       N  0.54681824  0.10229509  0.76833119    -0.38400
C4429       C  0.30037002  0.54048275  0.92246593    -0.05000
C4430       C  0.28946208  0.54585668  0.89627085    -0.02100
C4431       C  0.30717724  0.55202867  0.87449070     0.02800
C4432       C  0.33377009  0.56156524  0.88003638    -0.05000
C4433       C  0.34542579  0.55557117  0.90552711    -0.02100
C4434       C  0.32918274  0.54331456  0.92621124     0.02800
C4435       C  0.26020623  0.54933064  0.89201933     0.37500
C4436       C  0.37425860  0.56102332  0.90999042     0.37500
C4437       C  0.34216144  0.53469659  0.95134358     0.35900
C4438       C  0.29770787  0.54837101  0.84672964     0.35900
N4439       N  0.35255824  0.52781095  0.97137133    -0.38900
N4440       N  0.28976298  0.54371381  0.82494912    -0.38900
N4441       N  0.39733505  0.56508551  0.91365578    -0.38400
N4442       N  0.23697484  0.55263397  0.88853705    -0.38400
C4443       C  0.19300577  0.57025783  0.95127836    -0.05000
C4444       C  0.19640379  0.59887962  0.95443051    -0.02100
C4445       C  0.18077414  0.61722057  0.93891547     0.02800
C4446       C  0.16326985  0.60741781  0.91801292    -0.05000
C4447       C  0.15802804  0.57896854  0.91642067    -0.02100
C4448       C  0.17234095  0.56048642  0.93340421     0.02800
C4449       C  0.21540991  0.60986295  0.97453755     0.37500
C4450       C  0.13671060  0.56872814  0.89854061     0.37500
C4451       C  0.16510366  0.53170582  0.93251517     0.35900
C4452       C  0.18361816  0.64615661  0.94496384     0.35900
N4453       N  0.15812958  0.50905003  0.93167139    -0.38900
N4454       N  0.18746136  0.66868738  0.95131685    -0.38900
N4455       N  0.11944405  0.56017938  0.88481699    -0.38400
N4456       N  0.23053546  0.61877347  0.99039585    -0.38400
C4457       C  0.29906260  0.45536423  0.92354692    -0.05000
C4458       C  0.32258129  0.43889425  0.92761963    -0.02100
C4459       C  0.33460767  0.42433653  0.90536749     0.02800
C4460       C  0.32477250  0.42778054  0.87820158    -0.05000
C4461       C  0.30453570  0.44781328  0.87367462    -0.02100
C4462       C  0.29099014  0.46041973  0.89604357     0.02800
C4463       C  0.33484130  0.43709715  0.95445192     0.37500
C4464       C  0.29769240  0.45587527  0.84596939     0.37500
C4465       C  0.26792383  0.47784820  0.88969959     0.35900
C4466       C  0.35663151  0.40516328  0.91126607     0.35900
N4467       N  0.24956171  0.49121855  0.88353314    -0.38900
N4468       N  0.37396709  0.38989932  0.91626517    -0.38900
N4469       N  0.29230491  0.46250669  0.82388824    -0.38400
N4470       N  0.34514077  0.43593392  0.97572421    -0.38400
C4471       C  0.19085874  0.44115218  0.93656708    -0.05000
C4472       C  0.18768864  0.44027656  0.90783517    -0.02100
C4473       C  0.17942189  0.41588636  0.89498073     0.02800
C4474       C  0.17069507  0.39318674  0.91096033    -0.05000
C4475       C  0.17103956  0.39519255  0.93981639    -0.02100
C4476       C  0.18033901  0.41939766  0.95246138     0.02800
C4477       C  0.19116947  0.46460507  0.89122294     0.37500
C4478       C  0.16439216  0.37162434  0.95665436     0.37500
C4479       C  0.17672201  0.42283673  0.98173261     0.35900
C4480       C  0.18050506  0.41446972  0.86515874     0.35900
N4481       N  0.17262780  0.42577775  0.00492973    -0.38900
N4482       N  0.18166998  0.41340317  0.84146621    -0.38900
N4483       N  0.15959944  0.35267443  0.97002531    -0.38400
N4484       N  0.19255774  0.48381894  0.87749417    -0.38400
C4485       C  0.30077642  0.45401375  0.07219028    -0.05000
C4486       C  0.29779618  0.46381437  0.09968072    -0.02100
C4487       C  0.30942294  0.44948265  0.12177574     0.02800
C4488       C  0.32760700  0.42726067  0.11705275    -0.05000
C4489       C  0.32970647  0.41673914  0.08999314    -0.02100
C4490       C  0.31629793  0.42972753  0.06788253     0.02800
C4491       C  0.28226689  0.48842295  0.10622867     0.37500
C4492       C  0.34154670  0.39003014  0.08504789     0.37500
C4493       C  0.31633064  0.41609864  0.04132202     0.35900
C4494       C  0.30140405  0.45719664  0.14958812     0.35900
N4495       N  0.31602327  0.40465076  0.02048210    -0.38900
N4496       N  0.29461792  0.46327514  0.17160615    -0.38900
N4497       N  0.34973063  0.36852628  0.07924367    -0.38400
N4498       N  0.27010324  0.50786130  0.11254471    -0.38400
C4499       C  0.19768341  0.43692910  0.06487145    -0.05000
C4500       C  0.20370545  0.40956217  0.05585495    -0.02100
C4501       C  0.18960348  0.38716125  0.06713574     0.02800
C4502       C  0.17214383  0.39091003  0.08992607    -0.05000
C4503       C  0.16737735  0.41749973  0.10035862    -0.02100
C4504       C  0.17883716  0.44054284  0.08702975     0.02800
C4505       C  0.22509271  0.40344934  0.03567327     0.37500
C4506       C  0.15111503  0.42126811  0.12512187     0.37500
C4507       C  0.17096906  0.46770646  0.09646462     0.35900
C4508       C  0.19414410  0.35979266  0.05592123     0.35900
N4509       N  0.16427916  0.48920287  0.10416272    -0.38900
N4510       N  0.19754335  0.33810193  0.04677204    -0.38900
N4511       N  0.13870140  0.42488616  0.14514824    -0.38400
N4512       N  0.24207248  0.39830717  0.01967507    -0.38400
C4513       C  0.29408782  0.55542039  0.07351050    -0.05000
C4514       C  0.31951579  0.54611434  0.08346156    -0.02100
C4515       C  0.33293057  0.56081527  0.10451716     0.02800
C4516       C  0.32053367  0.58436336  0.11635160    -0.05000
C4517       C  0.29737267  0.59568115  0.10333072    -0.02100
C4518       C  0.28431239  0.58131726  0.08199144     0.02800
C4519       C  0.33232708  0.52200698  0.07148688     0.37500
C4520       C  0.28913614  0.62374678  0.10831019     0.37500
C4521       C  0.26323488  0.59510344  0.06638916     0.35900
C4522       C  0.35981570  0.55217386  0.11352717     0.35900
N4523       N  0.24745124  0.60749966  0.05397885    -0.38900
N4524       N  0.38141055  0.54558757  0.12060038    -0.38900
N4525       N  0.28174429  0.64623319  0.10940743    -0.38400
N4526       N  0.34289833  0.50297699  0.06182676    -0.38400
C4527       C  0.19121553  0.56909693  0.04583470    -0.05000
C4528       C  0.19600905  0.57183852  0.07406738    -0.02100
C4529       C  0.19151265  0.59720007  0.08738099     0.02800
C4530       C  0.18271650  0.62030810  0.07244760    -0.05000
C4531       C  0.17653769  0.61674410  0.04454161    -0.02100
C4532       C  0.17821123  0.59060831  0.03227617     0.02800
C4533       C  0.20569646  0.54856788  0.08955444     0.37500
C4534       C  0.17125129  0.64005060  0.02748171     0.37500
C4535       C  0.16171797  0.58445870  0.00864348     0.35900
C4536       C  0.19854470  0.59954945  0.11590438     0.35900
N4537       N  0.14686779  0.57964741  0.99091109    -0.38900
N4538       N  0.20527535  0.59945464  0.13848909    -0.38900
N4539       N  0.16891635  0.65829967  0.01276909    -0.38400
N4540       N  0.21311542  0.53038345  0.10264101    -0.38400
C4541       C  0.43377694  0.29982457  0.93257828    -0.05000
C4542       C  0.44087242  0.32750018  0.92772924    -0.02100
C4543       C  0.43455810  0.34005363  0.90232257     0.02800
C4544       C  0.42408798  0.32419169  0.88024264    -0.05000
C4545       C  0.41926381  0.29590963  0.88472455    -0.02100
C4546       C  0.42173834  0.28481388  0.91113074     0.02800
C4547       C  0.45535959  0.34288827  0.94851417     0.37500
C4548       C  0.41247979  0.27740396  0.86231858     0.37500
C4549       C  0.41089344  0.25784610  0.91589311     0.35900
C4550       C  0.43997301  0.36901872  0.89865779     0.35900
N4551       N  0.40055949  0.23671698  0.91789827    -0.38900
N4552       N  0.44404060  0.39219429  0.89575475    -0.38900
N4553       N  0.40763470  0.26226242  0.84465786    -0.38400
N4554       N  0.46718754  0.35531143  0.96485287    -0.38400
C4555       C  0.38889014  0.16337471  0.92268156    -0.05000
C4556       C  0.38828512  0.17546099  0.94896070    -0.02100
C4557       C  0.40964314  0.19306173  0.95762458     0.02800
C4558       C  0.43442158  0.19604271  0.94184595    -0.05000
C4559       C  0.43570495  0.18237546  0.91612827    -0.02100
C4560       C  0.41267454  0.16764928  0.90612295     0.02800
C4561       C  0.36418840  0.17239537  0.96639797     0.37500
C4562       C  0.45932143  0.18597808  0.89808752     0.37500
C4563       C  0.41272172  0.16077308  0.87728310     0.35900
C4564       C  0.40286486  0.21166048  0.98002455     0.35900
N4565       N  0.41488767  0.15681256  0.85398813    -0.38900
N4566       N  0.39546700  0.22650255  0.99714968    -0.38900
N4567       N  0.47779618  0.18892673  0.88328540    -0.38400
N4568       N  0.34543517  0.17115547  0.98104170    -0.38400
C4569       C  0.54447493  0.30281408  0.92097985    -0.05000
C4570       C  0.57236391  0.30970335  0.92484209    -0.02100
C4571       C  0.58644977  0.32657103  0.90585450     0.02800
C4572       C  0.57268015  0.33754448  0.88300373    -0.05000
C4573       C  0.54421472  0.33304476  0.88091565    -0.02100
C4574       C  0.53068977  0.31421798  0.89847466     0.02800
C4575       C  0.58728238  0.29788436  0.94744853     0.37500
C4576       C  0.52830562  0.35053406  0.86334349     0.37500
C4577       C  0.50335104  0.30512291  0.89205998     0.35900
C4578       C  0.61514624  0.33268981  0.91039277     0.35900
N4579       N  0.48207700  0.29682587  0.88593484    -0.38900
N4580       N  0.63793077  0.33719944  0.91512922    -0.38900
N4581       N  0.51523982  0.36557492  0.85071035    -0.38400
N4582       N  0.59947077  0.28838630  0.96523652    -0.38400
C4583       C  0.56690534  0.19714176  0.95341693    -0.05000
C4584       C  0.55943802  0.17639544  0.93444366    -0.02100
C4585       C  0.57983518  0.16278997  0.91828371     0.02800
C4586       C  0.60808671  0.16909967  0.92146880    -0.05000
C4587       C  0.61540415  0.18756962  0.94258034    -0.02100
C4588       C  0.59519138  0.20080023  0.95873221     0.02800
C4589       C  0.53096357  0.16846841  0.93182221     0.37500
C4590       C  0.64364157  0.19544441  0.94674740     0.37500
C4591       C  0.60421482  0.21787286  0.98134672     0.35900
C4592       C  0.57155516  0.14240853  0.89824431     0.35900
N4593       N  0.61276579  0.23084483  0.99921390    -0.38900
N4594       N  0.56484204  0.12621078  0.88223547    -0.38900
N4595       N  0.66550679  0.20328766  0.95117267    -0.38400
N4596       N  0.50834918  0.16148050  0.93025808    -0.38400
C4597       C  0.55500097  0.31333019  0.06508988    -0.05000
C4598       C  0.54416614  0.33397260  0.08226247    -0.02100
C4599       C  0.55997473  0.34481556  0.10406852     0.02800
C4600       C  0.58784604  0.33674278  0.10764450    -0.05000
C4601       C  0.59997983  0.32064028  0.08646811    -0.02100
C4602       C  0.58365474  0.30901999  0.06552934     0.02800
C4603       C  0.51849618  0.34687365  0.07521375     0.37500
C4604       C  0.62931551  0.31636731  0.08512301     0.37500
C4605       C  0.59695844  0.29391747  0.04353898     0.35900
C4606       C  0.54737617  0.36502243  0.12203708     0.35900
N4607       N  0.60875794  0.28276245  0.02609603    -0.38900
N4608       N  0.53681154  0.38110252  0.13608987    -0.38900
N4609       N  0.65266699  0.31305577  0.08243632    -0.38400
N4610       N  0.49889537  0.35873054  0.06930305    -0.38400
C4611       C  0.57534381  0.21073910  0.05196970    -0.05000
C4612       C  0.58414990  0.22176247  0.07733283    -0.02100
C4613       C  0.60514076  0.20884709  0.09194615     0.02800
C4614       C  0.61755967  0.18513902  0.08121497    -0.05000
C4615       C  0.60746675  0.17285971  0.05710590    -0.02100
C4616       C  0.58569644  0.18518608  0.04300429     0.02800
C4617       C  0.57019234  0.24466122  0.09028108     0.37500
C4618       C  0.61918541  0.14730524  0.04707390     0.37500
C4619       C  0.57311073  0.17082576  0.02029707     0.35900
C4620       C  0.61295848  0.21922323  0.11870944     0.35900
N4621       N  0.56285079  0.15865976  0.00274771    -0.38900
N4622       N  0.61838261  0.22756914  0.14021701    -0.38900
N4623       N  0.62843991  0.12690738  0.03902473    -0.38400
N4624       N  0.55987363  0.26220697  0.10265908    -0.38400
C4625       C  0.42784392  0.34440064  0.10485043    -0.05000
C4626       C  0.42416792  0.35068810  0.07698472    -0.02100
C4627       C  0.43698699  0.33455140  0.05639315     0.02800
C4628       C  0.45611862  0.31406715  0.06371563    -0.05000
C4629       C  0.46367789  0.31190503  0.09174012    -0.02100
C4630       C  0.44950891  0.32676640  0.11208045     0.02800
C4631       C  0.41016145  0.37566672  0.06956650     0.37500
C4632       C  0.48532225  0.29356307  0.10056813     0.37500
C4633       C  0.45715425  0.32292007  0.14053006     0.35900
C4634       C  0.42880967  0.33810452  0.02819800     0.35900
N4635       N  0.46388882  0.31964934  0.16293733    -0.38900
N4636       N  0.42157812  0.34099148  0.00590004    -0.38900
N4637       N  0.50190515  0.27886264  0.10874671    -0.38400
N4638       N  0.40034578  0.39621486  0.06313754    -0.38400
C4639       C  0.42891502  0.20233722  0.04920250    -0.05000
C4640       C  0.42160003  0.17579214  0.03967631    -0.02100
C4641       C  0.40168522  0.15966620  0.05418867     0.02800
C4642       C  0.39140826  0.16836121  0.08012140    -0.05000
C4643       C  0.40378599  0.19196241  0.09167154    -0.02100
C4644       C  0.41946769  0.21019073  0.07548501     0.02800
C4645       C  0.43501138  0.16477042  0.01537021     0.37500
C4646       C  0.40617154  0.19450835  0.12106202     0.37500
C4647       C  0.42678234  0.23657694  0.08699412     0.35900
C4648       C  0.39396643  0.13329917  0.04326614     0.35900
N4649       N  0.43168957  0.25751129  0.09701445    -0.38900
N4650       N  0.38944460  0.11204289  0.03377233    -0.38900
N4651       N  0.41053868  0.19667228  0.14424222    -0.38400
N4652       N  0.44605060  0.15566558  0.99626888    -0.38400
C4653       C  0.92740348  0.30328846  0.55221836    -0.05000
C4654       C  0.90177151  0.30202704  0.53833321    -0.02100
C4655       C  0.88051483  0.32047386  0.54495017     0.02800
C4656       C  0.88272898  0.33789962  0.56773598    -0.05000
C4657       C  0.90815373  0.33959042  0.58163675    -0.02100
C4658       C  0.93054478  0.32289937  0.57341501     0.02800
C4659       C  0.89603659  0.28139868  0.51762916     0.37500
C4660       C  0.91126067  0.35751455  0.60528404     0.37500
C4661       C  0.95667612  0.32623774  0.58695413     0.35900
C4662       C  0.85605104  0.32149123  0.52822243     0.35900
N4663       N  0.97730845  0.32947826  0.59802410    -0.38900
N4664       N  0.83676560  0.32238209  0.51465169    -0.38900
N4665       N  0.91406375  0.37166176  0.62417784    -0.38400
N4666       N  0.88999913  0.26552047  0.50105027    -0.38400
C4667       C  0.91183605  0.16154003  0.59627626    -0.05000
C4668       C  0.93384847  0.17930375  0.60216301    -0.02100
C4669       C  0.94340373  0.19786719  0.58226806     0.02800
C4670       C  0.93325583  0.19710157  0.55503270    -0.05000
C4671       C  0.91402713  0.17650686  0.54811893    -0.02100
C4672       C  0.90332269  0.15888477  0.56864737     0.02800
C4673       C  0.94634993  0.17961975  0.62905241     0.37500
C4674       C  0.90513943  0.17335322  0.52000426     0.37500
C4675       C  0.88329907  0.13813731  0.56137021     0.35900
C4676       C  0.96234309  0.21897392  0.59118204     0.35900
N4677       N  0.86735686  0.12154019  0.55561596    -0.38900
N4678       N  0.97723854  0.23542346  0.59946571    -0.38900
N4679       N  0.89807729  0.17080311  0.49756016    -0.38400
N4680       N  0.95698351  0.18019177  0.65013341    -0.38400
C4681       C  0.92987559  0.30272303  0.44278651    -0.05000
C4682       C  0.91446134  0.32425941  0.45435113    -0.02100
C4683       C  0.89397081  0.33729723  0.43886116     0.02800
C4684       C  0.88982893  0.32972491  0.41091554    -0.05000
C4685       C  0.90909104  0.31169036  0.39827920    -0.02100
C4686       C  0.92916608  0.29863358  0.41417563     0.02800
C4687       C  0.92173024  0.33501126  0.48103272     0.37500
C4688       C  0.90891047  0.30662405  0.36890397     0.37500
C4689       C  0.95027720  0.28248262  0.40065057     0.35900
C4690       C  0.87757935  0.35852604  0.45209049     0.35900
N4691       N  0.96739429  0.27058684  0.38911776    -0.38900
N4692       N  0.86459079  0.37543518  0.46277331    -0.38900
N4693       N  0.90897601  0.30249963  0.34551448    -0.38400
N4694       N  0.92813741  0.34470907  0.50168848    -0.38400
C4695       C  0.94677576  0.19631049  0.43240511    -0.05000
C4696       C  0.95386280  0.16894989  0.42648777    -0.02100
C4697       C  0.94130718  0.15548379  0.40417665     0.02800
C4698       C  0.92588592  0.17101153  0.38528274    -0.05000
C4699       C  0.91950066  0.19868307  0.39168295    -0.02100
C4700       C  0.92632459  0.20916754  0.41715656     0.02800
C4701       C  0.97421106  0.15506661  0.44275705     0.37500
C4702       C  0.90664389  0.21729550  0.37252128     0.37500
C4703       C  0.91032869  0.23170197  0.42841221     0.35900
C4704       C  0.94443312  0.12616103  0.40093415     0.35900
N4705       N  0.89579207  0.24861408  0.43679111    -0.38900
N4706       N  0.94640984  0.10257959  0.39932221    -0.38900
N4707       N  0.89727773  0.23288154  0.35747661    -0.38400
N4708       N  0.99058794  0.14403307  0.45567036    -0.38400
C4709       C  0.07259692  0.30168075  0.44414011    -0.05000
C4710       C  0.06447626  0.31840121  0.42192203    -0.02100
C4711       C  0.08372924  0.33534428  0.40854512     0.02800
C4712       C  0.11136890  0.33572075  0.41692177    -0.05000
C4713       C  0.11874548  0.32117048  0.44079162    -0.02100
C4714       C  0.09977554  0.30347425  0.45367291     0.02800
C4715       C  0.03652876  0.31765743  0.41184388     0.37500
C4716       C  0.14589351  0.32378036  0.45226308     0.37500
C4717       C  0.10816679  0.28764432  0.47726675     0.35900
C4718       C  0.07470458  0.35298567  0.38654881     0.35900
N4719       N  0.11492108  0.27499476  0.49600897    -0.38900
N4720       N  0.06706747  0.36711356  0.36927409    -0.38900
N4721       N  0.16734182  0.32525906  0.46207043    -0.38400
N4722       N  0.01427767  0.31732698  0.40378463    -0.38400
C4723       C  0.04115175  0.19063509  0.42274153    -0.05000
C4724       C  0.06159665  0.17128549  0.42954933    -0.02100
C4725       C  0.07442085  0.15506345  0.40886692     0.02800
C4726       C  0.06795310  0.15878954  0.38087290    -0.05000
C4727       C  0.04524836  0.17572639  0.37469993    -0.02100
C4728       C  0.03146969  0.19071796  0.39554434     0.02800
C4729       C  0.07119351  0.16927283  0.45756562     0.37500
C4730       C  0.03674075  0.17942419  0.34657415     0.37500
C4731       C  0.00702336  0.20586586  0.38856593     0.35900
C4732       C  0.09585402  0.13657674  0.41712680     0.35900
N4733       N  0.98732523  0.21703500  0.38184479    -0.38900
N4734       N  0.11244211  0.12260055  0.42637572    -0.38900
N4735       N  0.02942960  0.18361210  0.32452613    -0.38400
N4736       N  0.07897008  0.16766690  0.47982719    -0.38400
C4737       C  0.05532327  0.30895712  0.54517131    -0.05000
C4738       C  0.07640803  0.32332578  0.53208143    -0.02100
C4739       C  0.10166674  0.32705388  0.54523486     0.02800
C4740       C  0.10430020  0.32088041  0.57343571    -0.05000
C4741       C  0.08071182  0.31156841  0.58802557    -0.02100
C4742       C  0.05658112  0.30494662  0.57371671     0.02800
C4743       C  0.07098581  0.33627093  0.50611156     0.37500
C4744       C  0.08153680  0.30665679  0.61733567     0.37500
C4745       C  0.03388911  0.29230353  0.58828433     0.35900
C4746       C  0.12496959  0.33576962  0.52904199     0.35900
N4747       N  0.01638000  0.28216602  0.60078190    -0.38900
N4748       N  0.14379818  0.34153790  0.51572583    -0.38900
N4749       N  0.08199944  0.30295482  0.64072898    -0.38400
N4750       N  0.06617914  0.34784831  0.48611236    -0.38400
C4751       C  0.06527505  0.18177841  0.61875877    -0.05000
C4752       C  0.04738435  0.16644351  0.60175135    -0.02100
C4753       C  0.03383699  0.17923680  0.57958412     0.02800
C4754       C  0.04110989  0.20611193  0.57187695    -0.05000
C4755       C  0.06210834  0.21948868  0.58627113    -0.02100
C4756       C  0.07142004  0.20904185  0.61125667     0.02800
C4757       C  0.04316555  0.13754042  0.60647124     0.37500
C4758       C  0.07818705  0.24039553  0.57269143     0.37500
C4759       C  0.08745156  0.22674649  0.62876102     0.35900
C4760       C  0.01291434  0.16464738  0.56446162     0.35900
N4761       N  0.09920461  0.24182117  0.64273237    -0.38900
N4762       N  0.99613153  0.15307181  0.55241829    -0.38900
N4763       N  0.09244069  0.25550690  0.56121174    -0.38400
N4764       N  0.04003214  0.11423371  0.60921596    -0.38400
C4765       C  0.30085893  0.91463494  0.46285642    -0.05000
C4766       C  0.29221964  0.88690641  0.46577231    -0.02100
C4767       C  0.30944310  0.86507145  0.45745152     0.02800
C4768       C  0.33430465  0.87009109  0.44312541    -0.05000
C4769       C  0.34450610  0.89722606  0.44285058    -0.02100
C4770       C  0.32799789  0.91933231  0.45257914     0.02800
C4771       C  0.26470560  0.88004554  0.47514078     0.37500
C4772       C  0.37177615  0.90275055  0.43202321     0.37500
C4773       C  0.33878168  0.94692665  0.45006506     0.35900
C4774       C  0.30071069  0.83713438  0.46283484     0.35900
N4775       N  0.34756039  0.96884068  0.44775379    -0.38900
N4776       N  0.29313478  0.81512439  0.46726257    -0.38900
N4777       N  0.39362947  0.90732407  0.42371868    -0.38400
N4778       N  0.24261318  0.87413146  0.48173601    -0.38400
C4779       C  0.19132414  0.95618094  0.42740544    -0.05000
C4780       C  0.19759420  0.96141390  0.39949094    -0.02100
C4781       C  0.18209263  0.94880249  0.37870709     0.02800
C4782       C  0.16174688  0.92942719  0.38572696    -0.05000
C4783       C  0.15162272  0.92915530  0.41277355    -0.02100
C4784       C  0.16607007  0.94290507  0.43364423     0.02800
C4785       C  0.21973661  0.97981502  0.39186760     0.37500
C4786       C  0.12514604  0.91682836  0.41853199     0.37500
C4787       C  0.15432892  0.94369374  0.46101815     0.35900
C4788       C  0.18661845  0.95646164  0.35038080     0.35900
N4789       N  0.14427534  0.94476131  0.48257520    -0.38900
N4790       N  0.18991787  0.96346058  0.32797713    -0.38900
N4791       N  0.10362432  0.90787283  0.42321181    -0.38400
N4792       N  0.23739856  0.99435775  0.38547104    -0.38400
C4793       C  0.33090766  0.87025958  0.56075313    -0.05000
C4794       C  0.34313377  0.89635629  0.55663597    -0.02100
C4795       C  0.32751973  0.91859021  0.54606984     0.02800
C4796       C  0.29892081  0.91563597  0.54121985    -0.05000
C4797       C  0.28749083  0.88878557  0.54400481    -0.02100
C4798       C  0.30412045  0.86621423  0.55061953     0.02800
C4799       C  0.37176481  0.90059247  0.56316329     0.37500
C4800       C  0.25807031  0.88389545  0.54327018     0.37500
C4801       C  0.29286272  0.83873022  0.54783612     0.35900
C4802       C  0.34097131  0.94463799  0.54126983     0.35900
N4803       N  0.28370004  0.81696021  0.54556945    -0.38900
N4804       N  0.35184009  0.96536689  0.53738623    -0.38900
N4805       N  0.23466790  0.87977872  0.54335411    -0.38400
N4806       N  0.39466347  0.90406469  0.56820388    -0.38400
C4807       C  0.19276021  0.95727440  0.57994286    -0.05000
C4808       C  0.19722360  0.96732779  0.60693258    -0.02100
C4809       C  0.18169550  0.95725535  0.62946175     0.02800
C4810       C  0.16123189  0.93701483  0.62565117    -0.05000
C4811       C  0.15404032  0.93010459  0.59833318    -0.02100
C4812       C  0.17054595  0.93891082  0.57591511     0.02800
C4813       C  0.21896604  0.98685661  0.61223182     0.37500
C4814       C  0.13050820  0.91279732  0.59284451     0.37500
C4815       C  0.16693209  0.92560429  0.54954831     0.35900
C4816       C  0.18743907  0.96740494  0.65682296     0.35900
N4817       N  0.16438029  0.91407067  0.52894965    -0.38900
N4818       N  0.19235920  0.97559061  0.67852247    -0.38900
N4819       N  0.11155088  0.89947466  0.58780195    -0.38400
N4820       N  0.23656437  0.00198622  0.61704535    -0.38400
C4821       C  0.34093378  0.09291359  0.58028056    -0.05000
C4822       C  0.32430576  0.09747406  0.55752678    -0.02100
C4823       C  0.30650232  0.07687721  0.54868345     0.02800
C4824       C  0.30780851  0.05001110  0.56007219    -0.05000
C4825       C  0.32845210  0.04441224  0.57952668    -0.02100
C4826       C  0.34481983  0.06603520  0.58974934     0.02800
C4827       C  0.32374413  0.12420763  0.54439259     0.37500
C4828       C  0.33249252  0.01687006  0.58971546     0.37500
C4829       C  0.36737699  0.06030381  0.60784244     0.35900
C4830       C  0.28446288  0.08565067  0.53108780     0.35900
N4831       N  0.38609640  0.05505425  0.62119874    -0.38900
N4832       N  0.26677454  0.09448175  0.51826491    -0.38900
N4833       N  0.33574451  0.99495044  0.59801448    -0.38400
N4834       N  0.32315962  0.14527819  0.53367104    -0.38400
C4835       C  0.17078653  0.07327082  0.62098923    -0.05000
C4836       C  0.15731738  0.06582552  0.59622882    -0.02100
C4837       C  0.17258422  0.05670583  0.57283137     0.02800
C4838       C  0.20151804  0.05535664  0.57333940    -0.05000
C4839       C  0.21493080  0.06252427  0.59784471    -0.02100
C4840       C  0.19996990  0.07088475  0.62143655     0.02800
C4841       C  0.12770604  0.06777074  0.59435223     0.37500
C4842       C  0.24459244  0.06246269  0.59918510     0.37500
C4843       C  0.21559572  0.07853811  0.64555673     0.35900
C4844       C  0.15842666  0.04834085  0.54819131     0.35900
N4845       N  0.22833107  0.08478904  0.66448498    -0.38900
N4846       N  0.14710627  0.04158551  0.52855547    -0.38900
N4847       N  0.26799964  0.06321844  0.60262382    -0.38400
N4848       N  0.10409496  0.06954910  0.59268820    -0.38400
C4849       C  0.29622702  0.07181723  0.45903589    -0.05000
C4850       C  0.32489932  0.07174127  0.45329710    -0.02100
C4851       C  0.33794303  0.09439932  0.43992748     0.02800
C4852       C  0.32254003  0.11710493  0.43042589    -0.05000
C4853       C  0.29409417  0.11750417  0.43658694    -0.02100
C4854       C  0.28138915  0.09599762  0.45158875     0.02800
C4855       C  0.34150492  0.04895074  0.46231095     0.37500
C4856       C  0.27724757  0.13990684  0.42675668     0.37500
C4857       C  0.25265944  0.09953452  0.45905063     0.35900
C4858       C  0.36760470  0.09517477  0.43793814     0.35900
N4859       N  0.22989700  0.10301099  0.46517722    -0.38900
N4860       N  0.39133814  0.09586686  0.43714219    -0.38900
N4861       N  0.26377100  0.15767888  0.41890239    -0.38400
N4862       N  0.35488379  0.03084701  0.46956166    -0.38400
C4863       C  0.19929390  0.04705567  0.43661683    -0.05000
C4864       C  0.21511099  0.06215153  0.41706364    -0.02100
C4865       C  0.20299780  0.08298744  0.40176808     0.02800
C4866       C  0.17439400  0.08564750  0.40089638    -0.05000
C4867       C  0.15800386  0.06785620  0.41712495    -0.02100
C4868       C  0.17043426  0.04994966  0.43627491     0.02800
C4869       C  0.24383974  0.05616019  0.41107619     0.37500
C4870       C  0.12877329  0.06602246  0.41246655     0.37500
C4871       C  0.15352024  0.03266270  0.45358329     0.35900
C4872       C  0.22062782  0.10172891  0.38691458     0.35900
N4873       N  0.14001300  0.01871386  0.46727374    -0.38900
N4874       N  0.23603526  0.11616963  0.37616918    -0.38900
N4875       N  0.10545305  0.06402835  0.40866587    -0.38400
N4876       N  0.26646896  0.05136093  0.40538154    -0.38400
C4877       C  0.56382702  0.93532245  0.30496576    -0.05000
C4878       C  0.56791222  0.93877265  0.33342758    -0.02100
C4879       C  0.57521722  0.91600440  0.34968951     0.02800
C4880       C  0.57901894  0.88993456  0.33757142    -0.05000
C4881       C  0.57040257  0.88591977  0.31030478    -0.02100
C4882       C  0.56492665  0.90861899  0.29357922     0.02800
C4883       C  0.56398121  0.96546067  0.34608918     0.37500
C4884       C  0.56555332  0.85865653  0.29953978     0.37500
C4885       C  0.56166681  0.90441896  0.26427524     0.35900
C4886       C  0.57541571  0.91842712  0.37925596     0.35900
N4887       N  0.55920445  0.90103337  0.24093536    -0.38900
N4888       N  0.57493811  0.92020871  0.40291987    -0.38900
N4889       N  0.56006989  0.83743574  0.29039539    -0.38400
N4890       N  0.56081880  0.98675881  0.35621871    -0.38400
C4891       C  0.57573037  0.95546413  0.19256928    -0.05000
C4892       C  0.56841562  0.93797153  0.17043897    -0.02100
C4893       C  0.58892884  0.92432554  0.15460345     0.02800
C4894       C  0.61735734  0.92943622  0.15910391    -0.05000
C4895       C  0.62426649  0.95029365  0.17809761    -0.02100
C4896       C  0.60407841  0.96167087  0.19582340     0.02800
C4897       C  0.53977075  0.93249499  0.16452036     0.37500
C4898       C  0.65250165  0.95933273  0.18090714     0.37500
C4899       C  0.61355888  0.97745958  0.21912284     0.35900
C4900       C  0.58014762  0.90397392  0.13469077     0.35900
N4901       N  0.62173028  0.98878342  0.23825695    -0.38900
N4902       N  0.57250793  0.88754076  0.11935882    -0.38900
N4903       N  0.67485700  0.96676032  0.18366675    -0.38400
N4904       N  0.51703245  0.92791276  0.15962467    -0.38400
C4905       C  0.44248154  0.94410601  0.30950840    -0.05000
C4906       C  0.41808191  0.94900658  0.32499203    -0.02100
C4907       C  0.40619743  0.92806666  0.34112868     0.02800
C4908       C  0.41684485  0.90088439  0.34028398    -0.05000
C4909       C  0.44232703  0.89656469  0.32700614    -0.02100
C4910       C  0.45494182  0.91769246  0.31167704     0.02800
C4911       C  0.40317753  0.97468521  0.32284879     0.37500
C4912       C  0.45623725  0.87037786  0.32924964     0.37500
C4913       C  0.48028013  0.91096693  0.29729452     0.35900
C4914       C  0.38293377  0.93525227  0.35862507     0.35900
N4915       N  0.50014710  0.90470092  0.28569096    -0.38900
N4916       N  0.36481542  0.94162695  0.37282215    -0.38900
N4917       N  0.46792138  0.84979379  0.33032568    -0.38400
N4918       N  0.39027643  0.99448736  0.32090720    -0.38400
C4919       C  0.38974386  0.93108599  0.16938396    -0.05000
C4920       C  0.41420692  0.93959988  0.15619775    -0.02100
C4921       C  0.43434129  0.95445686  0.17102881     0.02800
C4922       C  0.43105581  0.95876992  0.19963811    -0.05000
C4923       C  0.40569761  0.95155215  0.21197684    -0.02100
C4924       C  0.38438662  0.94075727  0.19614620     0.02800
C4925       C  0.41737640  0.93541799  0.12695707     0.37500
C4926       C  0.40147664  0.95270404  0.24137175     0.37500
C4927       C  0.35696803  0.94083649  0.20777722     0.35900
C4928       C  0.45780985  0.96601581  0.15675454     0.35900
N4929       N  0.33574541  0.94313364  0.21834609    -0.38900
N4930       N  0.47631888  0.97570495  0.14534936    -0.38900
N4931       N  0.39669485  0.95295324  0.26460549    -0.38400
N4932       N  0.41977373  0.93270400  0.10347627    -0.38400
C4933       C  0.46369328  0.08239516  0.30173572    -0.05000
C4934       C  0.44432834  0.07800971  0.32304344    -0.02100
C4935       C  0.43156191  0.10047279  0.33679777     0.02800
C4936       C  0.43640757  0.12787227  0.32823024    -0.05000
C4937       C  0.45794651  0.13218779  0.30869023    -0.02100
C4938       C  0.47148911  0.10979376  0.29592790     0.02800
C4939       C  0.43847337  0.05038936  0.33202050     0.37500
C4940       C  0.46718369  0.15964429  0.30169793     0.37500
C4941       C  0.49438922  0.11529009  0.27738379     0.35900
C4942       C  0.41333247  0.09484238  0.35970223     0.35900
N4943       N  0.51268584  0.11985939  0.26279269    -0.38900
N4944       N  0.39851979  0.08983815  0.37764658    -0.38900
N4945       N  0.47480908  0.18139243  0.29609031    -0.38400
N4946       N  0.43453521  0.02853113  0.34015496    -0.38400
C4947       C  0.39509284  0.07951699  0.16842867    -0.05000
C4948       C  0.38735177  0.05767600  0.18570944    -0.02100
C4949       C  0.40727131  0.04407965  0.20122980     0.02800
C4950       C  0.43554060  0.05011241  0.19747354    -0.05000
C4951       C  0.44332374  0.06907318  0.17670281    -0.02100
C4952       C  0.42312142  0.08354887  0.16227459     0.02800
C4953       C  0.35882894  0.04968166  0.18890366     0.37500
C4954       C  0.47188847  0.07599968  0.17152021     0.37500
C4955       C  0.43123352  0.10283095  0.14109470     0.35900
C4956       C  0.39783846  0.02585803  0.22272748     0.35900
N4957       N  0.43765275  0.11814235  0.12417964    -0.38900
N4958       N  0.38951034  0.01247465  0.24042938    -0.38900
N4959       N  0.49455244  0.08189864  0.16735321    -0.38400
N4960       N  0.33639373  0.04255793  0.19212916    -0.38400
C4961       C  0.54857441  0.06436470  0.31358254    -0.05000
C4962       C  0.57692526  0.06424768  0.31772150    -0.02100
C4963       C  0.58965146  0.08752197  0.32900182     0.02800
C4964       C  0.57356590  0.11086180  0.33626767    -0.05000
C4965       C  0.54478708  0.10892671  0.33525720    -0.02100
C4966       C  0.53263816  0.08421099  0.32704469     0.02800
C4967       C  0.59240398  0.03934728  0.31277048     0.37500
C4968       C  0.52740544  0.13192860  0.34233635     0.37500
C4969       C  0.50948425  0.07464336  0.34284692     0.35900
C4970       C  0.61929811  0.08756139  0.33131595     0.35900
N4971       N  0.49249675  0.06663668  0.35745864    -0.38900
N4972       N  0.64294721  0.08674486  0.33307257    -0.38900
N4973       N  0.51302817  0.15026333  0.34694297    -0.38400
N4974       N  0.60505023  0.01944262  0.30988332    -0.38400
C4975       C  0.58695561  0.04410750  0.20158034    -0.05000
C4976       C  0.61365928  0.04973148  0.21145691    -0.02100
C4977       C  0.63475010  0.05824939  0.19341680     0.02800
C4978       C  0.62855672  0.06659687  0.16655075    -0.05000
C4979       C  0.60217005  0.06164507  0.15637812    -0.02100
C4980       C  0.58204123  0.04884107  0.17308713     0.02800
C4981       C  0.61977556  0.04925256  0.24036113     0.37500
C4982       C  0.59599015  0.06919956  0.12839968     0.37500
C4983       C  0.55648708  0.04072419  0.16036347     0.35900
C4984       C  0.66284909  0.05883066  0.20300899     0.35900
N4985       N  0.53624952  0.03418822  0.14997555    -0.38900
N4986       N  0.68518418  0.05854692  0.21081629    -0.38900
N4987       N  0.59113260  0.07532838  0.10610118    -0.38400
N4988       N  0.62623269  0.04967617  0.26306733    -0.38400
C4989       C  0.89386433  0.41377010  0.32597541    -0.05000
C4990       C  0.90992180  0.40205148  0.30473309    -0.02100
C4991       C  0.93031384  0.41772318  0.29108265     0.02800
C4992       C  0.93558972  0.44520752  0.29892614    -0.05000
C4993       C  0.92272194  0.45518696  0.32317029    -0.02100
C4994       C  0.90216364  0.43938580  0.33673977     0.02800
C4995       C  0.90662820  0.37337705  0.29758992     0.37500
C4996       C  0.93072153  0.48151760  0.33434338     0.37500
C4997       C  0.89081151  0.44849014  0.36278691     0.35900
C4998       C  0.94664664  0.40462537  0.26984223     0.35900
N4999       N  0.88205970  0.45550412  0.38383012    -0.38900
N5000       N  0.95930436  0.39267341  0.25356148    -0.38900
N5001       N  0.93719964  0.50238674  0.34362499    -0.38400
N5002       N  0.90553682  0.35041757  0.29162332    -0.38400
C5003       C  0.96814070  0.42790809  0.19339909    -0.05000
C5004       C  0.97874531  0.40079356  0.19414502    -0.02100
C5005       C  0.96465857  0.37850468  0.18178561     0.02800
C5006       C  0.93990758  0.38259828  0.16717478    -0.05000
C5007       C  0.93081122  0.41025962  0.16407531    -0.02100
C5008       C  0.94475326  0.43251904  0.17701888     0.02800
C5009       C  0.00409188  0.39514320  0.20840035     0.37500
C5010       C  0.90641851  0.41630191  0.14842629     0.37500
C5011       C  0.93418478  0.46013582  0.17402657     0.35900
C5012       C  0.97581390  0.35112689  0.18504421     0.35900
N5013       N  0.92564268  0.48206154  0.17121644    -0.38900
N5014       N  0.98468382  0.32935152  0.18799406    -0.38900
N5015       N  0.88698190  0.42147624  0.13603183    -0.38400
N5016       N  0.02394611  0.38955631  0.21989491    -0.38400
C5017       C  0.93411263  0.55564066  0.30304840    -0.05000
C5018       C  0.90768462  0.54364858  0.30037718    -0.02100
C5019       C  0.88515030  0.55318353  0.31621276     0.02800
C5020       C  0.88870349  0.57338314  0.33697740    -0.05000
C5021       C  0.91598708  0.58231997  0.34243506    -0.02100
C5022       C  0.93823465  0.57426341  0.32500375     0.02800
C5023       C  0.90312289  0.52084068  0.28174382     0.37500
C5024       C  0.92127877  0.60161490  0.36450641     0.37500
C5025       C  0.96539878  0.58535202  0.32980294     0.35900
C5026       C  0.85815321  0.54190958  0.31056330     0.35900
N5027       N  0.98698164  0.59440478  0.33364509    -0.38900
N5028       N  0.83673168  0.53296588  0.30571903    -0.38900
N5029       N  0.92563492  0.61705341  0.38203905    -0.38400
N5030       N  0.89895241  0.50206477  0.26779848    -0.38400
C5031       C  0.93823893  0.55631747  0.19337791    -0.05000
C5032       C  0.95443090  0.57006915  0.17329363    -0.02100
C5033       C  0.94378716  0.59295393  0.15868861     0.02800
C5034       C  0.91713808  0.60290846  0.16442708    -0.05000
C5035       C  0.89960685  0.58548008  0.17996016    -0.02100
C5036       C  0.91010721  0.56295487  0.19481494     0.02800
C5037       C  0.98112783  0.55920359  0.16584078     0.37500
C5038       C  0.87022591  0.58832965  0.17883733     0.37500
C5039       C  0.89145043  0.54673110  0.21142934     0.35900
C5040       C  0.95904889  0.60442502  0.13589112     0.35900
N5041       N  0.87565910  0.53412964  0.22394131    -0.38900
N5042       N  0.97112060  0.61324678  0.11739612    -0.38900
N5043       N  0.84654836  0.58790695  0.17800950    -0.38400
N5044       N  0.00209212  0.55019725  0.15901477    -0.38400
C5045       C  0.11099238  0.58793545  0.32905265    -0.05000
C5046       C  0.11261093  0.58187713  0.30092463    -0.02100
C5047       C  0.08935087  0.57297410  0.28708021     0.02800
C5048       C  0.06669758  0.56151256  0.30155920    -0.05000
C5049       C  0.06555654  0.56545855  0.33034961    -0.02100
C5050       C  0.08688839  0.58032226  0.34372964     0.02800
C5051       C  0.13754963  0.58509556  0.28480634     0.37500
C5052       C  0.04300868  0.55418878  0.34615119     0.37500
C5053       C  0.08464395  0.58682722  0.37265760     0.35900
C5054       C  0.08955161  0.57657910  0.25757201     0.35900
N5055       N  0.08297195  0.59217463  0.39575484    -0.38900
N5056       N  0.09192590  0.58024956  0.23432033    -0.38900
N5057       N  0.02505602  0.54509289  0.35886651    -0.38400
N5058       N  0.15544826  0.58617709  0.26907869    -0.38400
C5059       C  0.04432018  0.58033881  0.19799489    -0.05000
C5060       C  0.06629711  0.57511224  0.17920377    -0.02100
C5061       C  0.08053677  0.59695612  0.16613182     0.02800
C5062       C  0.07266790  0.62477146  0.17050898    -0.05000
C5063       C  0.04953796  0.62981253  0.18781667    -0.02100
C5064       C  0.03565905  0.60798465  0.20138502     0.02800
C5065       C  0.07611235  0.54731360  0.17469002     0.37500
C5066       C  0.03991147  0.65763509  0.19217023     0.37500
C5067       C  0.01222881  0.61427604  0.21892148     0.35900
C5068       C  0.10471277  0.59041776  0.14965158     0.35900
N5069       N  0.99354896  0.61931774  0.23291575    -0.38900
N5070       N  0.12405429  0.58510131  0.13669273    -0.38900
N5071       N  0.03244203  0.67985511  0.19612857    -0.38400
N5072       N  0.08417052  0.52525399  0.17103540    -0.38400
C5073       C  0.08245501  0.45678885  0.30477907    -0.05000
C5074       C  0.10411340  0.47030014  0.31842881    -0.02100
C5075       C  0.12326679  0.45534617  0.33408986     0.02800
C5076       C  0.12424853  0.42659680  0.33239897    -0.05000
C5077       C  0.10247937  0.41283142  0.31904462    -0.02100
C5078       C  0.08083987  0.42786952  0.30698889     0.02800
C5079       C  0.10788650  0.49937428  0.31590032     0.37500
C5080       C  0.10227102  0.38320433  0.31687410     0.37500
C5081       C  0.05778789  0.41328175  0.29520066     0.35900
C5082       C  0.14023018  0.46939422  0.35387707     0.35900
N5083       N  0.03935510  0.40155327  0.28604034    -0.38900
N5084       N  0.15258986  0.48060766  0.37066265    -0.38900
N5085       N  0.10114063  0.35961223  0.31450413    -0.38400
N5086       N  0.11292306  0.52239458  0.31427094    -0.38400
C5087       C  0.06584605  0.43397612  0.19976438    -0.05000
C5088       C  0.06089015  0.42873103  0.17171290    -0.02100
C5089       C  0.07576029  0.40762819  0.15797210     0.02800
C5090       C  0.09290131  0.38998842  0.17318484    -0.05000
C5091       C  0.09612701  0.39493086  0.20135262    -0.02100
C5092       C  0.08623299  0.41896343  0.21303023     0.02800
C5093       C  0.04058878  0.44464056  0.15727657     0.37500
C5094       C  0.10373879  0.37354845  0.22011976     0.37500
C5095       C  0.09978959  0.42937906  0.23714356     0.35900
C5096       C  0.07317349  0.40392451  0.12863757     0.35900
N5097       N  0.11284864  0.43734359  0.25514473    -0.38900
N5098       N  0.07106506  0.40104541  0.10519502    -0.38900
N5099       N  0.10720208  0.35742373  0.23697252    -0.38400
N5100       N  0.02433959  0.45742860  0.14587455    -0.38400
loop_ 
_geom_bond_atom_site_label_1 
_geom_bond_atom_site_label_2 
_geom_bond_distance 
_geom_bond_site_symmetry_2 
_ccdc_geom_bond_type 
O1            C9   1.266       .  A
O1          Co21   1.977       .  S
O2           C10   1.276       .  A
O2          Co22   1.913       .  S
O3           C11   1.267       .  A
O3          Co23   1.966       .  S
O4           C12   1.276       .  A
O4          Co24   2.042       .  S
O5           C11   1.276       .  A
O5          Co22   2.008   1_455  S
O6           C12   1.266       .  A
O6          Co21   1.996   1_655  S
O7           C10   1.295       .  A
O7          Co24   2.100       .  S
O8            C9   1.284       .  A
O8          Co23   2.065       .  S
C9         C5073   1.509       .  S
C10        C5017   1.512       .  S
C11        C5048   1.505       .  S
C12        C4992   1.509       .  S
O13          C26   1.277       .  A
O13         Co21   2.025   1_655  S
O14          C27   1.274       .  A
O14         Co22   2.028   1_455  S
O15          C28   1.255       .  A
O15         Co23   1.957       .  S
O16          C29   1.275       .  A
O16         Co24   1.920       .  S
O17          C29   1.294       .  A
O17         Co22   2.113       .  S
O18          C28   1.275       .  A
O18         Co21   2.020       .  S
O19          C26   1.278       .  A
O19         Co24   2.006       .  S
O20          C27   1.270       .  A
O20         Co23   2.001       .  S
Co21         O25   2.040       .  S
Co22         O25   2.025   1_655  S
Co23         O25   2.028       .  S
Co24         O25   2.002   1_655  S
C26        C5003   1.523       .  S
C27        C5059   1.528       .  S
C28        C5087   1.477       .  S
C29        C5031   1.517       .  S
O30          C38   1.260       .  A
O30         Co50   1.955   1_545  S
O31          C39   1.287       .  A
O31         Co51   1.892   1_565  S
O32          C40   1.261       .  A
O32         Co52   1.995       .  S
O33          C41   1.302       .  A
O33         Co53   2.092       .  S
O34          C40   1.272       .  A
O34         Co51   2.007       .  S
O35          C41   1.280       .  A
O35         Co50   1.892       .  S
O36          C39   1.306       .  A
O36         Co53   2.106       .  S
O37          C38   1.282       .  A
O37         Co52   2.042       .  S
C38        C4961   1.476       .  S
C39        C4905   1.518       .  S
C40        C4933   1.511       .  S
C41        C4877   1.488       .  S
O42          C55   1.247       .  A
O42         Co50   2.003       .  S
O43          C56   1.290       .  A
O43         Co51   2.026       .  S
O44          C57   1.266       .  A
O44         Co52   1.958       .  S
O45          C58   1.238       .  A
O45         Co53   1.965       .  S
O46          C58   1.249       .  A
O46         Co51   2.019   1_565  S
O47          C57   1.288       .  A
O47         Co50   2.054   1_545  S
O48          C55   1.242       .  A
O48         Co53   1.973       .  S
O49          C56   1.277       .  A
O49         Co52   1.967       .  S
Co50         O54   1.986   1_565  S
Co51         O54   1.987       .  S
Co52         O54   2.022       .  S
Co53         O54   2.104   1_565  S
C55        C4891   1.518       .  S
C56        C4950   1.496       .  S
C57        C4975   1.516       .  S
C58        C4922   1.497       .  S
O59          C67   1.282       .  A
O59         Co79   2.007       .  S
O60          C68   1.275       .  A
O60         Co80   2.006       .  S
O61          C69   1.277       .  A
O61         Co81   2.023       .  S
O62          C70   1.294       .  A
O62         Co82   2.128   1_545  S
O63          C69   1.264       .  A
O63         Co80   1.967       .  S
O64          C70   1.272       .  A
O64         Co79   1.917       .  S
O65          C68   1.276       .  A
O65         Co82   2.018       .  S
O66          C67   1.268       .  A
O66         Co81   1.971   1_545  S
C67        C4863   1.503       .  S
C68        C4807   1.515       .  S
C69        C4779   1.499       .  S
C70        C4838   1.502       .  S
O71          C84   1.292       .  A
O71         Co79   2.095       .  S
O72          C85   1.282       .  A
O72         Co80   2.036       .  S
O73          C86   1.284       .  A
O73         Co81   2.037   1_545  S
O74          C87   1.276       .  A
O74         Co82   2.009       .  S
O75          C87   1.269       .  A
O75         Co80   1.997       .  S
O76          C86   1.270       .  A
O76         Co79   2.009       .  S
O77          C84   1.280       .  A
O77         Co82   1.894   1_545  S
O78          C85   1.272       .  A
O78         Co81   1.978       .  S
Co79         O83   1.958   1_545  S
Co80         O83   2.006       .  S
Co81         O83   2.030       .  S
Co82         O83   1.994       .  S
C84        C4824   1.496       .  S
C85        C4765   1.520       .  S
C86        C4849   1.541       .  S
C87        C4796   1.524       .  S
O88          C96   1.270       .  A
O88        Co108   1.963   1_455  S
O89          C97   1.253       .  A
O89        Co109   1.962       .  S
O90          C98   1.272       .  A
O90        Co110   2.030       .  S
O91          C99   1.280       .  A
O91        Co111   2.063       .  S
O92          C98   1.253       .  A
O92        Co109   1.945   1_455  S
O93          C99   1.271       .  A
O93        Co108   1.929       .  S
O94          C97   1.276       .  A
O94        Co111   2.035       .  S
O95          C96   1.284       .  A
O95        Co110   2.027       .  S
C96        C4737   1.474       .  S
C97        C4681   1.484       .  S
C98        C4709   1.489       .  S
C99        C4653   1.499       .  S
O100        C113   1.288       .  A
O100       Co108   2.078       .  S
O101        C114   1.277       .  A
O101       Co109   2.030   1_455  S
O102        C115   1.262       .  A
O102       Co110   1.994       .  S
O103        C116   1.262       .  A
O103       Co111   1.959       .  S
O104        C116   1.275       .  A
O104       Co109   2.004       .  S
O105        C115   1.266       .  A
O105       Co108   2.010   1_455  S
O106        C113   1.274       .  A
O106       Co111   1.923       .  S
O107        C114   1.267       .  A
O107       Co110   1.977       .  S
Co108       O112   1.998   1_655  S
Co109       O112   2.007   1_655  S
Co110       O112   2.014       .  S
Co111       O112   1.999   1_655  S
C113       C4670   1.502       .  S
C114       C4723   1.505       .  S
C115       C4754   1.491       .  S
C116       C4695   1.463       .  S
O117        C125   1.273       .  A
O117       Co137   1.989   1_554  S
O118        C126   1.262       .  A
O118       Co138   1.977       .  S
O119        C127   1.282       .  A
O119       Co139   2.059       .  S
O120        C128   1.290       .  A
O120       Co140   2.091       .  S
O121        C127   1.261       .  A
O121       Co138   1.972   1_554  S
O122        C128   1.275       .  A
O122       Co137   1.926       .  S
O123        C126   1.275       .  A
O123       Co140   2.042       .  S
O124        C125   1.268       .  A
O124       Co139   1.985       .  S
C125       C4628   1.493       .  S
C126       C4569   1.501       .  S
C127       C4597   1.505       .  S
C128       C4541   1.495       .  S
O129        C142   1.289       .  A
O129       Co137   2.091       .  S
O130        C143   1.273       .  A
O130       Co138   2.031   1_554  S
O131        C144   1.266       .  A
O131       Co139   2.000       .  S
O132        C145   1.274       .  A
O132       Co140   1.992       .  S
O133        C145   1.276       .  A
O133       Co138   2.016       .  S
O134        C144   1.279       .  A
O134       Co137   2.048   1_554  S
O135        C142   1.275       .  A
O135       Co140   1.917       .  S
O136        C143   1.257       .  A
O136       Co139   1.955       .  S
Co137       O141   2.006   1_556  S
Co138       O141   2.035   1_556  S
Co139       O141   2.026       .  S
Co140       O141   2.009   1_556  S
C142       C4558   1.523       .  S
C143       C4611   1.477       .  S
C144       C4639   1.513       .  S
C145       C4583   1.510       .  S
O146        C154   1.270       .  A
O146       Co166   1.974   1_554  S
O147        C155   1.241       .  A
O147       Co167   1.982       .  S
O148        C156   1.244       .  A
O148       Co168   1.992       .  S
O149        C157   1.287       .  A
O149       Co169   2.025       .  S
O150        C156   1.250       .  A
O150       Co167   1.986   1_554  S
O151        C157   1.271       .  A
O151       Co166   1.953       .  S
O152        C155   1.240       .  A
O152       Co169   1.988       .  S
O153        C154   1.284       .  A
O153       Co168   2.034       .  S
C154       C4513   1.483       .  S
C155       C4457   1.510       .  S
C156       C4485   1.515       .  S
C157       C4429   1.489       .  S
O158        C171   1.267       .  A
O158       Co166   2.008       .  S
O159        C172   1.299       .  A
O159       Co167   2.080   1_554  S
O160        C173   1.264       .  A
O160       Co168   1.971       .  S
O161        C174   1.278       .  A
O161       Co169   1.851       .  S
O162        C174   1.314       .  A
O162       Co167   2.130       .  S
O163        C173   1.272       .  A
O163       Co166   2.012   1_554  S
O164        C171   1.261       .  A
O164       Co169   1.968       .  S
O165        C172   1.284       .  A
O165       Co168   1.896       .  S
Co166       O170   2.036       .  S
Co167       O170   2.117       .  S
Co168       O170   1.985   1_554  S
Co169       O170   1.961       .  S
C171       C4443   1.494       .  S
C172       C4499   1.505       .  S
C173       C4527   1.478       .  S
C174       C4471   1.486       .  S
O175        C183   1.283       .  A
O175       Co195   2.054       .  S
O176        C184   1.294       .  A
O176       Co196   2.107       .  S
O177        C185   1.269       .  A
O177       Co197   2.012       .  S
O178        C186   1.285       .  A
O178       Co198   2.027   1_545  S
O179        C185   1.270       .  A
O179       Co196   2.006       .  S
O180        C186   1.269       .  A
O180       Co195   2.002       .  S
O181        C184   1.280       .  A
O181       Co198   1.925       .  S
O182        C183   1.257       .  A
O182       Co197   1.958   1_545  S
C183       C4401   1.488       .  S
C184       C4317   1.524       .  S
C185       C4345   1.520       .  S
C186       C4376   1.518       .  S
O187        C200   1.268       .  A
O187       Co195   1.987       .  S
O188        C201   1.278       .  A
O188       Co196   2.005       .  S
O189        C202   1.281       .  A
O189       Co197   2.061   1_545  S
O190        C203   1.303       .  A
O190       Co198   2.141       .  S
O191        C203   1.267       .  A
O191       Co196   1.891       .  S
O192        C202   1.256       .  A
O192       Co195   1.968       .  S
O193        C200   1.275       .  A
O193       Co198   2.023   1_545  S
O194        C201   1.271       .  A
O194       Co197   2.003       .  S
Co195       O199   2.031   1_545  S
Co196       O199   1.978       .  S
Co197       O199   2.051       .  S
Co198       O199   2.022       .  S
C200       C4390   1.519       .  S
C201       C4359   1.507       .  S
C202       C4415   1.503       .  S
C203       C4331   1.507       .  S
O204        C212   1.280       .  A
O204       Co224   2.046       .  S
O205        C213   1.276       .  A
O205       Co225   2.041       .  S
O206        C214   1.262       .  A
O206       Co226   1.989       .  S
O207        C215   1.257       .  A
O207       Co227   1.967       .  S
O208        C214   1.273       .  A
O208       Co225   2.035       .  S
O209        C215   1.266       .  A
O209       Co224   2.016       .  S
O210        C213   1.258       .  A
O210       Co227   1.958   1_556  S
O211        C212   1.270       .  A
O211       Co226   1.996   1_554  S
C212       C4289   1.530       .  S
C213       C4208   1.504       .  S
C214       C4233   1.508       .  S
C215       C4264   1.490       .  S
O216        C229   1.258       .  A
O216       Co224   1.964       .  S
O217        C230   1.256       .  A
O217       Co225   1.960       .  S
O218        C231   1.268       .  A
O218       Co226   2.028   1_554  S
O219        C232   1.275       .  A
O219       Co227   2.061   1_556  S
O220        C232   1.261       .  A
O220       Co225   1.980       .  S
O221        C231   1.257       .  A
O221       Co224   1.963       .  S
O222        C229   1.276       .  A
O222       Co227   2.036       .  S
O223        C230   1.280       .  A
O223       Co226   2.046       .  S
Co224       O228   2.094   1_554  S
Co225       O228   2.105       .  S
Co226       O228   2.125       .  S
Co227       O228   2.102   1_554  S
C229       C4278   1.477       .  S
C230       C4247   1.479       .  S
C231       C4303   1.498       .  S
C232       C4222   1.526       .  S
O233        C241   1.275       .  A
O233       Co253   2.035       .  S
O234        C242   1.273       .  A
O234       Co254   2.026       .  S
O235        C243   1.277       .  A
O235       Co255   1.914   1_655  S
O236        C244   1.273       .  A
O236       Co256   1.999   1_455  S
O237        C243   1.293       .  A
O237       Co254   2.104       .  S
O238        C244   1.279       .  A
O238       Co253   2.035       .  S
O239        C242   1.267       .  A
O239       Co256   1.994       .  S
O240        C241   1.279       .  A
O240       Co255   2.011       .  S
C241       C4177   1.531       .  S
C242       C4093   1.498       .  S
C243       C4124   1.504       .  S
C244       C4152   1.501       .  S
O245        C258   1.262       .  A
O245       Co253   1.978       .  S
O246        C259   1.274       .  A
O246       Co254   1.932       .  S
O247        C260   1.277       .  A
O247       Co255   2.023       .  S
O248        C261   1.282       .  A
O248       Co256   2.045       .  S
O249        C261   1.275       .  A
O249       Co254   1.997       .  S
O250        C260   1.261       .  A
O250       Co253   1.969       .  S
O251        C258   1.269       .  A
O251       Co256   2.015   1_455  S
O252        C259   1.293       .  A
O252       Co255   2.114   1_655  S
Co253       O257   2.024       .  S
Co254       O257   2.011   1_655  S
Co255       O257   2.016       .  S
Co256       O257   2.039   1_655  S
C258       C4166   1.503       .  S
C259       C4135   1.530       .  S
C260       C4191   1.475       .  S
C261       C4107   1.513       .  S
O262        C270   1.266       .  A
O262       Co282   1.990       .  S
O263        C271   1.271       .  A
O263       Co283   1.990   1_655  S
O264        C272   1.301       .  A
O264       Co284   2.138       .  S
O265        C273   1.275       .  A
O265       Co285   2.026       .  S
O266        C272   1.272       .  A
O266       Co283   1.916       .  S
O267        C273   1.271       .  A
O267       Co282   1.983   1_655  S
O268        C271   1.275       .  A
O268       Co285   2.021       .  S
O269        C270   1.268       .  A
O269       Co284   2.008       .  S
C270       C4065   1.507       .  S
C271       C4009   1.497       .  S
C272       C4037   1.515       .  S
C273       C3984   1.494       .  S
O274        C287   1.272       .  A
O274       Co282   2.031   1_655  S
O275        C288   1.286       .  A
O275       Co283   2.083       .  S
O276        C289   1.276       .  A
O276       Co284   2.001       .  S
O277        C290   1.257       .  A
O277       Co285   1.969       .  S
O278        C290   1.279       .  A
O278       Co283   2.045   1_655  S
O279        C289   1.283       .  A
O279       Co282   2.043       .  S
O280        C287   1.259       .  A
O280       Co285   1.960       .  S
O281        C288   1.274       .  A
O281       Co284   1.910       .  S
Co282       O286   2.030   1_455  S
Co283       O286   2.001   1_455  S
Co284       O286   2.013   1_455  S
Co285       O286   2.017       .  S
C287       C3995   1.503       .  S
C288       C4051   1.497       .  S
C289       C4082   1.508       .  S
C290       C4026   1.491       .  S
O291        C299   1.306       .  A
O291       Co311   2.082       .  S
O292        C300   1.276       .  A
O292       Co312   2.032       .  S
O293        C301   1.241       .  A
O293       Co313   2.005       .  S
O294        C302   1.254       .  A
O294       Co314   1.961       .  S
O295        C301   1.247       .  A
O295       Co312   2.023   1_554  S
O296        C302   1.281       .  A
O296       Co311   2.067   1_556  S
O297        C300   1.258       .  A
O297       Co314   1.979       .  S
O298        C299   1.274       .  A
O298       Co313   1.895       .  S
C299       C3953   1.510       .  S
C300       C3897   1.515       .  S
C301       C3925   1.505       .  S
C302       C3869   1.503       .  S
O303        C316   1.242       .  A
O303       Co311   2.009   1_556  S
O304        C317   1.255       .  A
O304       Co312   1.943   1_554  S
O305        C318   1.306       .  A
O305       Co313   2.109       .  S
O306        C319   1.267       .  A
O306       Co314   1.991       .  S
O307        C319   1.265       .  A
O307       Co312   1.984       .  S
O308        C318   1.261       .  A
O308       Co311   1.881       .  S
O309        C316   1.251       .  A
O309       Co314   1.999       .  S
O310        C317   1.289       .  A
O310       Co313   2.080       .  S
Co311       O315   2.046   1_554  S
Co312       O315   2.099       .  S
Co313       O315   2.058   1_554  S
Co314       O315   2.086       .  S
C316       C3883   1.491       .  S
C317       C3939   1.520       .  S
C318       C3970   1.497       .  S
C319       C3911   1.474       .  S
O320        C328   1.256       .  A
O320       Co340   1.971       .  S
O321        C329   1.280       .  A
O321       Co341   2.010       .  S
O322        C330   1.261       .  A
O322       Co342   2.009       .  S
O323        C331   1.264       .  A
O323       Co343   2.037       .  S
O324        C330   1.258       .  A
O324       Co341   1.983       .  S
O325        C331   1.248       .  A
O325       Co340   1.958       .  S
O326        C329   1.272       .  A
O326       Co343   1.972       .  S
O327        C328   1.272       .  A
O327       Co342   2.028       .  S
C328       C3827   1.474       .  S
C329       C3844   1.500       .  S
C330       C3813   1.505       .  S
C331       C3855   1.504       .  S
O332        C345   1.284       .  A
O332       Co340   2.040       .  S
O333        C346   1.285       .  A
O333       Co341   1.972       .  S
O334        C347   1.250       .  A
O334       Co342   1.924       .  S
O335        C348   1.256       .  A
O335       Co343   1.985       .  S
O336        C348   1.255       .  A
O336       Co341   1.995       .  S
O337        C347   1.277       .  A
O337       Co340   2.039       .  S
O338        C345   1.272       .  A
O338       Co343   1.985       .  S
O339        C346   1.282       .  A
O339       Co342   2.031       .  S
Co340       O344   2.048       .  S
Co341       O344   1.979       .  S
Co342       O344   2.077       .  S
Co343       O344   2.089       .  S
C345       C3799   1.527       .  S
C346       C4012   1.505       .  S
C347       C4656   1.484       .  S
C348       C3785   1.499       .  S
O349        C357   1.279       .  A
O349       Co369   2.034       .  S
O350        C358   1.260       .  A
O350       Co370   1.991       .  S
O351        C359   1.269       .  A
O351       Co371   1.898       .  S
O352        C360   1.263       .  A
O352       Co372   1.959       .  S
O353        C359   1.291       .  A
O353       Co370   2.096       .  S
O354        C360   1.274       .  A
O354       Co369   2.021       .  S
O355        C358   1.258       .  A
O355       Co372   1.972       .  S
O356        C357   1.275       .  A
O356       Co371   1.989       .  S
C357       C4572   1.499       .  S
C358       C3729   1.474       .  S
C359       C4205   1.496       .  S
C360       C3715   1.494       .  S
O361        C374   1.257       .  A
O361       Co369   1.953       .  S
O362        C375   1.261       .  A
O362       Co370   1.898       .  S
O363        C376   1.261       .  A
O363       Co371   2.002       .  S
O364        C377   1.279       .  A
O364       Co372   2.045       .  S
O365        C377   1.264       .  A
O365       Co370   1.958       .  S
O366        C376   1.255       .  A
O366       Co369   1.968       .  S
O367        C374   1.271       .  A
O367       Co372   2.023       .  S
O368        C375   1.288       .  A
O368       Co371   2.095       .  S
Co369       O373   2.015       .  S
Co370       O373   1.998       .  S
Co371       O373   2.017       .  S
Co372       O373   2.042       .  S
C374       C3771   1.499       .  S
C375       C3743   1.467       .  S
C376       C3757   1.476       .  S
C377       C3841   1.486       .  S
O378        C386   1.251       .  A
O378       Co398   1.980       .  S
O379        C387   1.278       .  A
O379       Co399   2.029       .  S
O380        C388   1.261       .  A
O380       Co400   1.897       .  S
O381        C389   1.256       .  A
O381       Co401   1.988       .  S
O382        C388   1.297       .  A
O382       Co399   2.108       .  S
O383        C389   1.260       .  A
O383       Co398   1.977       .  S
O384        C387   1.266       .  A
O384       Co401   1.975       .  S
O385        C386   1.259       .  A
O385       Co400   2.039       .  S
C386       C3690   1.519       .  S
C387       C3858   1.516       .  S
C388       C3673   1.511       .  S
C389       C3774   1.485       .  S
O390        C403   1.263       .  A
O390       Co398   1.988       .  S
O391        C404   1.274       .  A
O391       Co399   1.929       .  S
O392        C405   1.272       .  A
O392       Co400   2.004       .  S
O393        C406   1.253       .  A
O393       Co401   1.981       .  S
O394        C406   1.259       .  A
O394       Co399   2.013       .  S
O395        C405   1.269       .  A
O395       Co398   1.984       .  S
O396        C403   1.268       .  A
O396       Co401   2.006       .  S
O397        C404   1.294       .  A
O397       Co400   2.083       .  S
Co398       O402   2.093       .  S
Co399       O402   2.074       .  S
Co400       O402   2.036       .  S
Co401       O402   2.102       .  S
C403       C3645   1.499       .  S
C404       C3701   1.500       .  S
C405       C4404   1.504       .  S
C406       C3662   1.511       .  S
O407        C415   1.259       .  A
O407       Co427   1.908       .  S
O408        C416   1.249       .  A
O408       Co428   1.956       .  S
O409        C417   1.269       .  A
O409       Co429   2.025       .  S
O410        C418   1.286       .  A
O410       Co430   2.063       .  S
O411        C417   1.249       .  A
O411       Co428   1.961       .  S
O412        C418   1.268       .  A
O412       Co427   1.969       .  S
O413        C416   1.268       .  A
O413       Co430   2.049       .  S
O414        C415   1.289       .  A
O414       Co429   2.095       .  S
C415       C3830   1.477       .  S
C416       C3617   1.499       .  S
C417       C3676   1.487       .  S
C418       C3634   1.530       .  S
O419        C432   1.260       .  A
O419       Co427   2.007       .  S
O420        C433   1.273       .  A
O420       Co428   2.045       .  S
O421        C434   1.269       .  A
O421       Co429   1.878       .  S
O422        C435   1.261       .  A
O422       Co430   1.950       .  S
O423        C435   1.280       .  A
O423       Co428   2.045       .  S
O424        C434   1.304       .  A
O424       Co427   2.113       .  S
O425        C432   1.253       .  A
O425       Co430   1.988       .  S
O426        C433   1.264       .  A
O426       Co429   1.988       .  S
Co427       O431   2.020       .  S
Co428       O431   2.033       .  S
Co429       O431   2.041       .  S
Co430       O431   2.073       .  S
C432       C3575   1.504       .  S
C433       C3603   1.511       .  S
C434       C4667   1.499       .  S
C435       C3592   1.487       .  S
O436        C444   1.303       .  A
O436       Co456   2.120       .  S
O437        C445   1.276       .  A
O437       Co457   2.028       .  S
O438        C446   1.271       .  A
O438       Co458   1.994       .  S
O439        C447   1.257       .  A
O439       Co459   1.983       .  S
O440        C446   1.284       .  A
O440       Co457   2.061       .  S
O441        C447   1.271       .  A
O441       Co456   2.037       .  S
O442        C445   1.255       .  A
O442       Co459   1.935       .  S
O443        C444   1.266       .  A
O443       Co458   1.896       .  S
C444       C4586   1.507       .  S
C445       C3550   1.484       .  S
C446       C4418   1.515       .  S
C447       C3533   1.531       .  S
O448        C461   1.267       .  A
O448       Co456   1.979       .  S
O449        C462   1.252       .  A
O449       Co457   1.984       .  S
O450        C463   1.294       .  A
O450       Co458   2.098       .  S
O451        C464   1.275       .  A
O451       Co459   2.055       .  S
O452        C464   1.253       .  A
O452       Co457   1.956       .  S
O453        C463   1.264       .  A
O453       Co456   1.893       .  S
O454        C461   1.274       .  A
O454       Co459   2.030       .  S
O455        C462   1.268       .  A
O455       Co458   2.032       .  S
Co456       O460   2.014       .  S
Co457       O460   2.036       .  S
Co458       O460   2.023       .  S
Co459       O460   2.071       .  S
C461       C3561   1.505       .  S
C462       C3687   1.501       .  S
C463       C3760   1.494       .  S
C464       C3620   1.499       .  S
O465        C473   1.250       .  A
O465       Co485   1.978       .  S
O466        C474   1.266       .  A
O466       Co486   1.993       .  S
O467        C475   1.299       .  A
O467       Co487   2.117       .  S
O468        C476   1.276       .  A
O468       Co488   2.063       .  S
O469        C475   1.265       .  A
O469       Co486   1.890       .  S
O470        C476   1.248       .  A
O470       Co485   1.942       .  S
O471        C474   1.275       .  A
O471       Co488   2.043       .  S
O472        C473   1.259       .  A
O472       Co487   2.003       .  S
C473       C3746   1.478       .  S
C474       C3631   1.536       .  S
C475       C3816   1.509       .  S
C476       C3564   1.509       .  S
O477        C490   1.278       .  A
O477       Co485   2.044       .  S
O478        C491   1.300       .  A
O478       Co486   2.111       .  S
O479        C492   1.279       .  A
O479       Co487   2.009       .  S
O480        C493   1.252       .  A
O480       Co488   1.974       .  S
O481        C493   1.271       .  A
O481       Co486   2.030       .  S
O482        C492   1.282       .  A
O482       Co485   2.047       .  S
O483        C490   1.249       .  A
O483       Co488   1.928       .  S
O484        C491   1.264       .  A
O484       Co487   1.885       .  S
Co485       O489   2.041       .  S
Co486       O489   2.030       .  S
Co487       O489   2.030       .  S
Co488       O489   2.075       .  S
C490       C3505   1.504       .  S
C491       C4023   1.509       .  S
C492       C4219   1.537       .  S
C493       C3519   1.520       .  S
O494        C502   1.272       .  A
O494       Co514   2.019       .  S
O495        C503   1.263       .  A
O495       Co515   2.043       .  S
O496        C504   1.262       .  A
O496       Co516   1.874       .  S
O497        C505   1.253       .  A
O497       Co517   1.960       .  S
O498        C504   1.299       .  A
O498       Co515   2.111       .  S
O499        C505   1.277       .  A
O499       Co514   2.068       .  S
O500        C503   1.240       .  A
O500       Co517   1.945       .  S
O501        C502   1.261       .  A
O501       Co516   1.968       .  S
C502       C3466   1.504       .  S
C503       C3491   1.513       .  S
C504       C3449   1.483       .  S
C505       C3477   1.520       .  S
O506        C519   1.254       .  A
O506       Co514   1.956       .  S
O507        C520   1.266       .  A
O507       Co515   1.907       .  S
O508        C521   1.262       .  A
O508       Co516   2.000       .  S
O509        C522   1.286       .  A
O509       Co517   2.046       .  S
O510        C522   1.270       .  A
O510       Co515   1.973       .  S
O511        C521   1.253       .  A
O511       Co514   1.976       .  S
O512        C519   1.274       .  A
O512       Co517   2.047       .  S
O513        C520   1.297       .  A
O513       Co516   2.112       .  S
Co514       O518   2.031       .  S
Co515       O518   2.033       .  S
Co516       O518   2.020       .  S
Co517       O518   2.012       .  S
C519       C3435   1.488       .  S
C520       C4373   1.515       .  S
C521       C4821   1.472       .  S
C522       C3648   1.506       .  S
O523        C531   1.290       .  A
O523       Co543   1.990       .  S
O524        C532   1.248       .  A
O524       Co544   1.949       .  S
O525        C533   1.247       .  A
O525       Co545   1.992       .  S
O526        C534   1.274       .  A
O526       Co546   2.017       .  S
O527        C533   1.255       .  A
O527       Co544   2.006       .  S
O528        C534   1.267       .  A
O528       Co543   1.974       .  S
O529        C532   1.267       .  A
O529       Co546   2.037       .  S
O530        C531   1.277       .  A
O530       Co545   1.947       .  S
C531       C4740   1.493       .  S
C532       C3365   1.492       .  S
C533       C4040   1.507       .  S
C534       C3379   1.519       .  S
O535        C548   1.280       .  A
O535       Co543   2.065       .  S
O536        C549   1.274       .  A
O536       Co544   1.991       .  S
O537        C550   1.260       .  A
O537       Co545   2.011       .  S
O538        C551   1.265       .  A
O538       Co546   1.955       .  S
O539        C551   1.275       .  A
O539       Co544   2.026       .  S
O540        C550   1.252       .  A
O540       Co543   2.022       .  S
O541        C548   1.263       .  A
O541       Co546   1.982       .  S
O542        C549   1.294       .  A
O542       Co545   2.039       .  S
Co543       O547   2.082       .  S
Co544       O547   2.060       .  S
Co545       O547   2.010       .  S
Co546       O547   2.059       .  S
C548       C3480   1.525       .  S
C549       C3393   1.474       .  S
C550       C3407   1.496       .  S
C551       C3421   1.491       .  S
O552        C560   1.246       .  A
O552       Co572   1.932       .  S
O553        C561   1.274       .  A
O553       Co573   1.996       .  S
O554        C562   1.263       .  A
O554       Co574   2.003       .  S
O555        C563   1.263       .  A
O555       Co575   2.043       .  S
O556        C562   1.265       .  A
O556       Co573   2.014       .  S
O557        C563   1.244       .  A
O557       Co572   1.943       .  S
O558        C561   1.273       .  A
O558       Co575   1.980       .  S
O559        C560   1.271       .  A
O559       Co574   2.034       .  S
C560       C3337   1.488       .  S
C561       C3424   1.503       .  S
C562       C3351   1.514       .  S
C563       C3494   1.484       .  S
O564        C577   1.275       .  A
O564       Co572   2.013       .  S
O565        C578   1.281       .  A
O565       Co573   1.942       .  S
O566        C579   1.254       .  A
O566       Co574   1.933       .  S
O567        C580   1.257       .  A
O567       Co575   1.995       .  S
O568        C580   1.259       .  A
O568       Co573   2.014       .  S
O569        C579   1.280       .  A
O569       Co572   2.050       .  S
O570        C577   1.271       .  A
O570       Co575   1.971       .  S
O571        C578   1.285       .  A
O571       Co574   2.026       .  S
Co572       O576   2.031       .  S
Co573       O576   1.969       .  S
Co574       O576   2.072       .  S
Co575       O576   2.073       .  S
C577       C3718   1.503       .  S
C578       C4460   1.500       .  S
C579       C4544   1.504       .  S
C580       C3323   1.516       .  S
O581        C589   1.259       .  A
O581       Co601   2.011       .  S
O582        C590   1.267       .  A
O582       Co602   1.992       .  S
O583        C591   1.299       .  A
O583       Co603   2.091       .  S
O584        C592   1.279       .  A
O584       Co604   2.066       .  S
O585        C591   1.271       .  A
O585       Co602   1.858       .  S
O586        C592   1.252       .  A
O586       Co601   1.948       .  S
O587        C590   1.273       .  A
O587       Co604   2.049       .  S
O588        C589   1.232       .  A
O588       Co603   1.932       .  S
C589       C4474   1.480       .  S
C590       C3522   1.519       .  S
C591       C4054   1.493       .  S
C592       C3281   1.524       .  S
O593        C606   1.268       .  A
O593       Co601   2.028       .  S
O594        C607   1.272       .  A
O594       Co602   2.059       .  S
O595        C608   1.266       .  A
O595       Co603   1.957       .  S
O596        C609   1.250       .  A
O596       Co604   1.950       .  S
O597        C609   1.270       .  A
O597       Co602   2.015       .  S
O598        C608   1.286       .  A
O598       Co601   2.051       .  S
O599        C606   1.250       .  A
O599       Co604   1.940       .  S
O600        C607   1.231       .  A
O600       Co603   1.924       .  S
Co601       O605   2.078       .  S
Co602       O605   1.988       .  S
Co603       O605   2.065       .  S
Co604       O605   2.073       .  S
C606       C3298   1.490       .  S
C607       C3396   1.485       .  S
C608       C3354   1.511       .  S
C609       C3309   1.482       .  S
O610        C618   1.265       .  A
O610       Co630   1.979       .  S
O611        C619   1.267       .  A
O611       Co631   1.984       .  S
O612        C620   1.263       .  A
O612       Co632   2.006       .  S
O613        C621   1.269       .  A
O613       Co633   2.037       .  S
O614        C620   1.257       .  A
O614       Co631   1.986       .  S
O615        C621   1.261       .  A
O615       Co630   1.987       .  S
O616        C619   1.266       .  A
O616       Co633   1.977       .  S
O617        C618   1.271       .  A
O617       Co632   2.012       .  S
C618       C3463   1.495       .  S
C619       C3312   1.490       .  S
C620       C3410   1.505       .  S
C621       C3270   1.521       .  S
O622        C635   1.276       .  A
O622       Co630   2.017       .  S
O623        C636   1.277       .  A
O623       Co631   1.952       .  S
O624        C637   1.265       .  A
O624       Co632   1.956       .  S
O625        C638   1.262       .  A
O625       Co633   2.011       .  S
O626        C638   1.258       .  A
O626       Co631   2.004       .  S
O627        C637   1.280       .  A
O627       Co630   2.041       .  S
O628        C635   1.272       .  A
O628       Co633   1.976       .  S
O629        C636   1.292       .  A
O629       Co632   2.062       .  S
Co630       O634   2.056       .  S
Co631       O634   1.964       .  S
Co632       O634   2.092       .  S
Co633       O634   2.079       .  S
C635       C3256   1.495       .  S
C636       C4751   1.499       .  S
C637       C4835   1.522       .  S
C638       C3578   1.505       .  S
O639        C647   1.240       .  A
O639       Co659   1.930       .  S
O640        C648   1.265       .  A
O640       Co660   1.971       .  S
O641        C649   1.286       .  A
O641       Co661   2.081       .  S
O642        C650   1.268       .  A
O642       Co662   2.039       .  S
O643        C649   1.266       .  A
O643       Co660   1.902       .  S
O644        C650   1.245       .  A
O644       Co659   1.936       .  S
O645        C648   1.280       .  A
O645       Co662   2.048       .  S
O646        C647   1.266       .  A
O646       Co661   2.038       .  S
C647       C3340   1.466       .  S
C648       C3267   1.512       .  S
C649       C3452   1.486       .  S
C650       C3295   1.480       .  S
O651        C664   1.272       .  A
O651       Co659   2.011       .  S
O652        C665   1.297       .  A
O652       Co660   2.102       .  S
O653        C666   1.271       .  A
O653       Co661   1.981       .  S
O654        C667   1.248       .  A
O654       Co662   1.955       .  S
O655        C667   1.268       .  A
O655       Co660   2.020       .  S
O656        C666   1.278       .  A
O656       Co659   2.036       .  S
O657        C664   1.256       .  A
O657       Co662   1.938       .  S
O658        C665   1.269       .  A
O658       Co661   1.906       .  S
Co659       O663   1.999       .  S
Co660       O663   2.008       .  S
Co661       O663   2.042       .  S
Co662       O663   2.057       .  S
C664       C3225   1.462       .  S
C665       C4387   1.505       .  S
C666       C4555   1.507       .  S
C667       C3242   1.511       .  S
O668        C676   1.276       .  A
O668       Co688   2.016       .  S
O669        C677   1.274       .  A
O669       Co689   2.036       .  S
O670        C678   1.267       .  A
O670       Co690   1.874       .  S
O671        C679   1.265       .  A
O671       Co691   1.969       .  S
O672        C678   1.309       .  A
O672       Co689   2.143       .  S
O673        C679   1.277       .  A
O673       Co688   2.030       .  S
O674        C677   1.255       .  A
O674       Co691   1.964       .  S
O675        C676   1.277       .  A
O675       Co690   1.998       .  S
C676       C4348   1.526       .  S
C677       C3141   1.489       .  S
C678       C3183   1.507       .  S
C679       C3127   1.506       .  S
O680        C693   1.245       .  A
O680       Co688   1.938       .  S
O681        C694   1.268       .  A
O681       Co689   1.906       .  S
O682        C695   1.262       .  A
O682       Co690   1.993       .  S
O683        C696   1.282       .  A
O683       Co691   2.059       .  S
O684        C696   1.266       .  A
O684       Co689   1.980       .  S
O685        C695   1.254       .  A
O685       Co688   1.969       .  S
O686        C693   1.268       .  A
O686       Co691   2.052       .  S
O687        C694   1.295       .  A
O687       Co690   2.126       .  S
Co688       O692   1.995       .  S
Co689       O692   2.005       .  S
Co690       O692   2.009       .  S
Co691       O692   2.074       .  S
C693       C3197   1.486       .  S
C694       C3169   1.497       .  S
C695       C3155   1.493       .  S
C696       C3211   1.513       .  S
O697        C705   1.305       .  A
O697       Co717   2.144       .  S
O698        C706   1.273       .  A
O698       Co718   2.027       .  S
O699        C707   1.270       .  A
O699       Co719   1.980       .  S
O700        C708   1.253       .  A
O700       Co720   1.966       .  S
O701        C707   1.281       .  A
O701       Co718   2.042       .  S
O702        C708   1.265       .  A
O702       Co717   2.009       .  S
O703        C706   1.257       .  A
O703       Co720   1.954       .  S
O704        C705   1.258       .  A
O704       Co719   1.872       .  S
C705       C4121   1.498       .  S
C706       C3788   1.495       .  S
C707       C3981   1.501       .  S
C708       C3074   1.510       .  S
O709        C722   1.266       .  A
O709       Co717   1.982       .  S
O710        C723   1.254       .  A
O710       Co718   1.975       .  S
O711        C724   1.300       .  A
O711       Co719   2.124       .  S
O712        C725   1.274       .  A
O712       Co720   2.052       .  S
O713        C725   1.257       .  A
O713       Co718   1.956       .  S
O714        C724   1.261       .  A
O714       Co717   1.873       .  S
O715        C722   1.278       .  A
O715       Co720   2.042       .  S
O716        C723   1.258       .  A
O716       Co719   2.005       .  S
Co717       O721   2.007       .  S
Co718       O721   2.025       .  S
Co719       O721   2.019       .  S
Co720       O721   2.061       .  S
C722       C3214   1.506       .  S
C723       C3085   1.477       .  S
C724       C3102   1.493       .  S
C725       C3113   1.503       .  S
O726        C734   1.274       .  A
O726       Co746   2.033       .  S
O727        C735   1.268       .  A
O727       Co747   2.016       .  S
O728        C736   1.269       .  A
O728       Co748   1.979       .  S
O729        C737   1.255       .  A
O729       Co749   1.950       .  S
O730        C736   1.273       .  A
O730       Co747   2.019       .  S
O731        C737   1.267       .  A
O731       Co746   2.014       .  S
O732        C735   1.261       .  A
O732       Co749   1.971       .  S
O733        C734   1.269       .  A
O733       Co748   1.985       .  S
C734       C4236   1.522       .  S
C735       C3029   1.499       .  S
C736       C3872   1.526       .  S
C737       C3732   1.487       .  S
O738        C751   1.248       .  A
O738       Co746   1.945       .  S
O739        C752   1.262       .  A
O739       Co747   1.974       .  S
O740        C753   1.263       .  A
O740       Co748   2.003       .  S
O741        C754   1.269       .  A
O741       Co749   2.036       .  S
O742        C754   1.257       .  A
O742       Co747   1.952       .  S
O743        C753   1.248       .  A
O743       Co746   1.933       .  S
O744        C751   1.277       .  A
O744       Co749   2.092       .  S
O745        C752   1.268       .  A
O745       Co748   2.021       .  S
Co746       O750   2.078       .  S
Co747       O750   2.090       .  S
Co748       O750   2.137       .  S
Co749       O750   2.138       .  S
C751       C3116   1.509       .  S
C752       C3057   1.510       .  S
C753       C3043   1.480       .  S
C754       C3200   1.488       .  S
O755        C763   1.277       .  A
O755       Co775   2.018       .  S
O756        C764   1.256       .  A
O756       Co776   1.947       .  S
O757        C765   1.264       .  A
O757       Co777   1.873       .  S
O758        C766   1.259       .  A
O758       Co778   1.958       .  S
O759        C765   1.289       .  A
O759       Co776   2.062       .  S
O760        C766   1.273       .  A
O760       Co775   2.026       .  S
O761        C764   1.267       .  A
O761       Co778   2.010       .  S
O762        C763   1.277       .  A
O762       Co777   1.991       .  S
C763       C4138   1.517       .  S
C764       C3589   1.503       .  S
C765       C2987   1.483       .  S
C766       C2973   1.501       .  S
O767        C780   1.256       .  A
O767       Co775   1.949       .  S
O768        C781   1.247       .  A
O768       Co776   1.948       .  S
O769        C782   1.260       .  A
O769       Co777   2.007       .  S
O770        C783   1.271       .  A
O770       Co778   2.020       .  S
O771        C783   1.257       .  A
O771       Co776   1.963       .  S
O772        C782   1.261       .  A
O772       Co775   1.969       .  S
O773        C780   1.269       .  A
O773       Co778   2.018       .  S
O774        C781   1.267       .  A
O774       Co777   2.071       .  S
Co775       O779   2.028       .  S
Co776       O779   2.039       .  S
Co777       O779   2.003       .  S
Co778       O779   2.102       .  S
C780       C3001   1.475       .  S
C781       C3172   1.495       .  S
C782       C3099   1.470       .  S
C783       C3015   1.497       .  S
O784        C792   1.277       .  A
O784       Co804   2.023       .  S
O785        C793   1.269       .  A
O785       Co805   2.009       .  S
O786        C794   1.238       .  A
O786       Co806   1.931       .  S
O787        C795   1.259       .  A
O787       Co807   1.982       .  S
O788        C794   1.261       .  A
O788       Co805   2.034       .  S
O789        C795   1.257       .  A
O789       Co804   1.983       .  S
O790        C793   1.260       .  A
O790       Co807   1.963       .  S
O791        C792   1.256       .  A
O791       Co806   1.926       .  S
C792       C4250   1.491       .  S
C793       C2945   1.479       .  S
C794       C3998   1.502       .  S
C795       C2931   1.504       .  S
O796        C809   1.250       .  A
O796       Co804   1.947       .  S
O797        C810   1.263       .  A
O797       Co805   1.928       .  S
O798        C811   1.237       .  A
O798       Co806   1.924       .  S
O799        C812   1.268       .  A
O799       Co807   2.010       .  S
O800        C812   1.264       .  A
O800       Co805   1.956       .  S
O801        C811   1.245       .  A
O801       Co804   1.937       .  S
O802        C809   1.274       .  A
O802       Co807   2.049       .  S
O803        C810   1.274       .  A
O803       Co806   2.029       .  S
Co804       O808   2.096       .  S
Co805       O808   2.013       .  S
Co806       O808   2.078       .  S
Co807       O808   2.089       .  S
C809       C2959   1.503       .  S
C810       C3088   1.480       .  S
C811       C3046   1.454       .  S
C812       C3004   1.475       .  S
O813        C821   1.274       .  A
O813       Co833   2.011       .  S
O814        C822   1.258       .  A
O814       Co834   1.980       .  S
O815        C823   1.267       .  A
O815       Co835   1.887       .  S
O816        C824   1.261       .  A
O816       Co836   1.947       .  S
O817        C823   1.301       .  A
O817       Co834   2.127       .  S
O818        C824   1.276       .  A
O818       Co833   2.024       .  S
O819        C822   1.262       .  A
O819       Co836   1.986       .  S
O820        C821   1.277       .  A
O820       Co835   1.999       .  S
C821       C4362   1.505       .  S
C822       C2917   1.499       .  S
C823       C3886   1.500       .  S
C824       C3547   1.483       .  S
O825        C838   1.254       .  A
O825       Co833   1.956       .  S
O826        C839   1.262       .  A
O826       Co834   1.885       .  S
O827        C840   1.259       .  A
O827       Co835   2.006       .  S
O828        C841   1.274       .  A
O828       Co836   2.018       .  S
O829        C841   1.273       .  A
O829       Co834   1.990       .  S
O830        C840   1.258       .  A
O830       Co833   1.963       .  S
O831        C838   1.273       .  A
O831       Co836   2.045       .  S
O832        C839   1.300       .  A
O832       Co835   2.132       .  S
Co833       O837   2.004       .  S
Co834       O837   1.985       .  S
Co835       O837   2.026       .  S
Co836       O837   2.062       .  S
C838       C3018   1.495       .  S
C839       C3060   1.494       .  S
C840       C3158   1.470       .  S
C841       C2962   1.506       .  S
O842        C850   1.274       .  A
O842       Co862   2.020       .  S
O843        C851   1.271       .  A
O843       Co863   2.022       .  S
O844        C852   1.261       .  A
O844       Co864   1.966       .  S
O845        C853   1.263       .  A
O845       Co865   1.985       .  S
O846        C852   1.271       .  A
O846       Co863   2.029       .  S
O847        C853   1.267       .  A
O847       Co862   2.022       .  S
O848        C851   1.266       .  A
O848       Co865   1.981       .  S
O849        C850   1.266       .  A
O849       Co864   1.983       .  S
C850       C4793   1.516       .  S
C851       C3130   1.507       .  S
C852       C4320   1.501       .  S
C853       C2850   1.516       .  S
O854        C867   1.248       .  A
O854       Co862   1.932       .  S
O855        C868   1.252       .  A
O855       Co863   1.929       .  S
O856        C869   1.265       .  A
O856       Co864   2.021       .  S
O857        C870   1.271       .  A
O857       Co865   2.067       .  S
O858        C870   1.248       .  A
O858       Co863   1.946       .  S
O859        C869   1.249       .  A
O859       Co862   1.934       .  S
O860        C867   1.280       .  A
O860       Co865   2.074       .  S
O861        C868   1.272       .  A
O861       Co864   2.056       .  S
Co862       O866   2.085       .  S
Co863       O866   2.075       .  S
Co864       O866   2.154       .  S
Co865       O866   2.145       .  S
C867       C2889   1.509       .  S
C868       C2875   1.474       .  S
C869       C2864   1.481       .  S
C870       C2903   1.519       .  S
O871        C879   1.270       .  A
O871       Co891   1.918       .  S
O872        C880   1.249       .  A
O872       Co892   1.943       .  S
O873        C881   1.276       .  A
O873       Co893   2.051       .  S
O874        C882   1.282       .  A
O874       Co894   2.055       .  S
O875        C881   1.257       .  A
O875       Co892   1.970       .  S
O876        C882   1.272       .  A
O876       Co891   1.984       .  S
O877        C880   1.275       .  A
O877       Co894   2.074       .  S
O878        C879   1.283       .  A
O878       Co893   2.079       .  S
C879       C2819   1.491       .  S
C880       C2906   1.513       .  S
C881       C2805   1.512       .  S
C882       C2833   1.515       .  S
O883        C896   1.275       .  A
O883       Co891   2.028       .  S
O884        C897   1.281       .  A
O884       Co892   2.042       .  S
O885        C898   1.270       .  A
O885       Co893   1.872       .  S
O886        C899   1.264       .  A
O886       Co894   1.965       .  S
O887        C899   1.276       .  A
O887       Co892   2.023       .  S
O888        C898   1.290       .  A
O888       Co891   2.096       .  S
O889        C896   1.266       .  A
O889       Co894   2.001       .  S
O890        C897   1.270       .  A
O890       Co893   1.980       .  S
Co891       O895   1.997       .  S
Co892       O895   1.998       .  S
Co893       O895   2.011       .  S
Co894       O895   2.069       .  S
C896       C3326   1.508       .  S
C897       C3900   1.510       .  S
C898       C4432   1.478       .  S
C899       C3032   1.491       .  S
O900        C908   1.271       .  A
O900       Co920   1.901       .  S
O901        C909   1.246       .  A
O901       Co921   1.946       .  S
O902        C910   1.247       .  A
O902       Co922   1.938       .  S
O903        C911   1.265       .  A
O903       Co923   2.000       .  S
O904        C910   1.250       .  A
O904       Co921   1.956       .  S
O905        C911   1.270       .  A
O905       Co920   1.985       .  S
O906        C909   1.276       .  A
O906       Co923   2.075       .  S
O907        C908   1.286       .  A
O907       Co922   2.054       .  S
C908       C2791   1.499       .  S
C909       C2836   1.505       .  S
C910       C2777   1.466       .  S
C911       C2892   1.510       .  S
O912        C925   1.272       .  A
O912       Co920   2.013       .  S
O913        C926   1.271       .  A
O913       Co921   2.010       .  S
O914        C927   1.245       .  A
O914       Co922   1.957       .  S
O915        C928   1.255       .  A
O915       Co923   1.965       .  S
O916        C928   1.264       .  A
O916       Co921   2.014       .  S
O917        C927   1.274       .  A
O917       Co920   2.074       .  S
O918        C925   1.258       .  A
O918       Co923   1.948       .  S
O919        C926   1.261       .  A
O919       Co922   1.948       .  S
Co920       O924   2.023       .  S
Co921       O924   2.097       .  S
Co922       O924   2.081       .  S
Co923       O924   2.096       .  S
C925       C2766   1.488       .  S
C926       C4068   1.496       .  S
C927       C4180   1.544       .  S
C928       C3368   1.490       .  S
O929        C937   1.284       .  A
O929       Co949   2.043       .  S
O930        C938   1.269       .  A
O930       Co950   2.010       .  S
O931        C939   1.262       .  A
O931       Co951   1.870       .  S
O932        C940   1.267       .  A
O932       Co952   1.974       .  S
O933        C939   1.299       .  A
O933       Co950   2.110       .  S
O934        C940   1.270       .  A
O934       Co949   2.004       .  S
O935        C938   1.263       .  A
O935       Co952   1.978       .  S
O936        C937   1.271       .  A
O936       Co951   1.977       .  S
C937       C4810   1.513       .  S
C938       C2976   1.504       .  S
C939       C4194   1.487       .  S
C940       C3253   1.496       .  S
O941        C954   1.249       .  A
O941       Co949   1.929       .  S
O942        C955   1.267       .  A
O942       Co950   1.892       .  S
O943        C956   1.258       .  A
O943       Co951   2.013       .  S
O944        C957   1.275       .  A
O944       Co952   2.032       .  S
O945        C957   1.269       .  A
O945       Co950   1.976       .  S
O946        C956   1.246       .  A
O946       Co949   1.952       .  S
O947        C954   1.273       .  A
O947       Co952   2.036       .  S
O948        C955   1.294       .  A
O948       Co951   2.112       .  S
Co949       O953   2.002       .  S
Co950       O953   1.996       .  S
Co951       O953   2.008       .  S
Co952       O953   2.057       .  S
C954       C2749   1.488       .  S
C955       C2794   1.509       .  S
C956       C2861   1.481       .  S
C957       C2735   1.519       .  S
O958        C966   1.267       .  A
O958       Co978   1.915       .  S
O959        C967   1.250       .  A
O959       Co979   1.928       .  S
O960        C968   1.261       .  A
O960       Co980   2.010       .  S
O961        C969   1.283       .  A
O961       Co981   2.058       .  S
O962        C968   1.244       .  A
O962       Co979   1.945       .  S
O963        C969   1.268       .  A
O963       Co978   1.989       .  S
O964        C967   1.272       .  A
O964       Co981   2.046       .  S
O965        C966   1.283       .  A
O965       Co980   2.082       .  S
C966       C2822   1.503       .  S
C967       C2738   1.506       .  S
C968       C2780   1.477       .  S
C969       C2721   1.525       .  S
O970        C983   1.269       .  A
O970       Co978   2.017       .  S
O971        C984   1.282       .  A
O971       Co979   2.060       .  S
O972        C985   1.269       .  A
O972       Co980   1.917       .  S
O973        C986   1.261       .  A
O973       Co981   1.955       .  S
O974        C986   1.272       .  A
O974       Co979   2.006       .  S
O975        C985   1.287       .  A
O975       Co978   2.074       .  S
O976        C983   1.256       .  A
O976       Co981   1.986       .  S
O977        C984   1.273       .  A
O977       Co980   1.988       .  S
Co978       O982   2.016       .  S
Co979       O982   2.018       .  S
Co980       O982   2.053       .  S
Co981       O982   2.072       .  S
C983       C2707   1.501       .  S
C984       C4079   1.518       .  S
C985       C4446   1.495       .  S
C986       C2948   1.485       .  S
O987        C995   1.247       .  A
O987      Co1007   1.957       .  S
O988        C996   1.287       .  A
O988      Co1008   2.050       .  S
O989        C997   1.263       .  A
O989      Co1009   1.931       .  S
O990        C998   1.248       .  A
O990      Co1010   1.960       .  S
O991        C997   1.286       .  A
O991      Co1008   2.089       .  S
O992        C998   1.264       .  A
O992      Co1007   1.987       .  S
O993        C996   1.264       .  A
O993      Co1010   1.972       .  S
O994        C995   1.258       .  A
O994      Co1009   2.011       .  S
C995       C2878   1.478       .  S
C996       C2724   1.525       .  S
C997       C2808   1.504       .  S
C998       C2752   1.473       .  S
O999       C1012   1.255       .  A
O999      Co1007   1.944       .  S
O1000      C1013   1.280       .  A
O1000     Co1008   1.937       .  S
O1001      C1014   1.280       .  A
O1001     Co1009   2.039       .  S
O1002      C1015   1.254       .  A
O1002     Co1010   1.994       .  S
O1003      C1015   1.256       .  A
O1003     Co1008   2.007       .  S
O1004      C1014   1.268       .  A
O1004     Co1007   1.976       .  S
O1005      C1012   1.273       .  A
O1005     Co1010   2.008       .  S
O1006      C1013   1.284       .  A
O1006     Co1009   2.053       .  S
Co1007     O1011   2.067       .  S
Co1008     O1011   2.056       .  S
Co1009     O1011   2.054       .  S
Co1010     O1011   2.120       .  S
C1012      C3239   1.499       .  S
C1013      C3914   1.495       .  S
C1014      C4334   1.521       .  S
C1015      C2693   1.502       .  S
O1016      C1024   1.267       .  A
O1016     Co1036   1.883       .  S
O1017      C1025   1.254       .  A
O1017     Co1037   1.941       .  S
O1018      C1026   1.264       .  A
O1018     Co1038   2.035       .  S
O1019      C1027   1.271       .  A
O1019     Co1039   2.021       .  S
O1020      C1026   1.246       .  A
O1020     Co1037   1.954       .  S
O1021      C1027   1.271       .  A
O1021     Co1036   1.984       .  S
O1022      C1025   1.276       .  A
O1022     Co1039   2.043       .  S
O1023      C1024   1.288       .  A
O1023     Co1038   2.093       .  S
C1024      C2654   1.477       .  S
C1025      C2679   1.495       .  S
C1026      C2640   1.490       .  S
C1027      C2665   1.497       .  S
O1028      C1041   1.271       .  A
O1028     Co1036   2.020       .  S
O1029      C1042   1.285       .  A
O1029     Co1037   2.073       .  S
O1030      C1043   1.265       .  A
O1030     Co1038   1.878       .  S
O1031      C1044   1.264       .  A
O1031     Co1039   1.957       .  S
O1032      C1044   1.269       .  A
O1032     Co1037   1.996       .  S
O1033      C1043   1.300       .  A
O1033     Co1036   2.128       .  S
O1034      C1041   1.270       .  A
O1034     Co1039   1.994       .  S
O1035      C1042   1.269       .  A
O1035     Co1038   1.984       .  S
Co1036     O1040   1.999       .  S
Co1037     O1040   2.024       .  S
Co1038     O1040   2.012       .  S
Co1039     O1040   2.057       .  S
C1041      C2623   1.512       .  S
C1042      C4149   1.517       .  S
C1043      C5045   1.488       .  S
C1044      C2763   1.496       .  S
O1045      C1053   1.286       .  A
O1045     Co1065   2.087       .  S
O1046      C1054   1.264       .  A
O1046     Co1066   2.011       .  S
O1047      C1055   1.249       .  A
O1047     Co1067   1.926       .  S
O1048      C1056   1.264       .  A
O1048     Co1068   1.974       .  S
O1049      C1055   1.287       .  A
O1049     Co1066   2.083       .  S
O1050      C1056   1.272       .  A
O1050     Co1065   2.031       .  S
O1051      C1054   1.260       .  A
O1051     Co1068   1.977       .  S
O1052      C1053   1.249       .  A
O1052     Co1067   1.920       .  S
C1053      C4516   1.492       .  S
C1054      C2567   1.498       .  S
C1055      C3928   1.517       .  S
C1056      C2556   1.498       .  S
O1057      C1070   1.253       .  A
O1057     Co1065   1.958       .  S
O1058      C1071   1.255       .  A
O1058     Co1066   1.948       .  S
O1059      C1072   1.274       .  A
O1059     Co1067   2.045       .  S
O1060      C1073   1.279       .  A
O1060     Co1068   2.077       .  S
O1061      C1073   1.253       .  A
O1061     Co1066   1.948       .  S
O1062      C1072   1.256       .  A
O1062     Co1065   1.957       .  S
O1063      C1070   1.269       .  A
O1063     Co1068   2.048       .  S
O1064      C1071   1.269       .  A
O1064     Co1067   2.022       .  S
Co1065     O1069   2.092       .  S
Co1066     O1069   2.091       .  S
Co1067     O1069   2.006       .  S
Co1068     O1069   2.112       .  S
C1070      C2668   1.492       .  S
C1071      C2584   1.483       .  S
C1072      C2595   1.488       .  S
C1073      C2609   1.509       .  S
O1074      C1082   1.327       .  A
O1074     Co1094   2.192       .  S
O1075      C1083   1.272       .  A
O1075     Co1095   2.032       .  S
O1076      C1084   1.271       .  A
O1076     Co1096   1.982       .  S
O1077      C1085   1.261       .  A
O1077     Co1097   1.986       .  S
O1078      C1084   1.274       .  A
O1078     Co1095   2.010       .  S
O1079      C1085   1.262       .  A
O1079     Co1094   2.002       .  S
O1080      C1083   1.262       .  A
O1080     Co1097   1.977       .  S
O1081      C1082   1.277       .  A
O1081     Co1096   1.844       .  S
C1082      C4908   1.508       .  S
C1083      C2847   1.517       .  S
C1084      C4768   1.506       .  S
C1085      C2511   1.503       .  S
O1086      C1099   1.249       .  A
O1086     Co1094   1.946       .  S
O1087      C1100   1.267       .  A
O1087     Co1095   1.969       .  S
O1088      C1101   1.251       .  A
O1088     Co1096   2.095       .  S
O1089      C1102   1.276       .  A
O1089     Co1097   2.036       .  S
O1090      C1102   1.264       .  A
O1090     Co1095   1.951       .  S
O1091      C1101   1.226       .  A
O1091     Co1094   1.955       .  S
O1092      C1099   1.273       .  A
O1092     Co1097   2.058       .  S
O1093      C1100   1.277       .  A
O1093     Co1096   2.030       .  S
Co1094     O1098   2.065       .  S
Co1095     O1098   2.048       .  S
Co1096     O1098   2.004       .  S
Co1097     O1098   2.108       .  S
C1099      C2612   1.503       .  S
C1100      C2539   1.502       .  S
C1101      C2525   1.492       .  S
C1102      C2682   1.491       .  S
O1103      C1111   1.253       .  A
O1103     Co1123   1.973       .  S
O1104      C1112   1.281       .  A
O1104     Co1124   2.023       .  S
O1105      C1113   1.262       .  A
O1105     Co1125   2.006       .  S
O1106      C1114   1.254       .  A
O1106     Co1126   2.000       .  S
O1107      C1113   1.256       .  A
O1107     Co1124   1.983       .  S
O1108      C1114   1.248       .  A
O1108     Co1123   1.949       .  S
O1109      C1112   1.271       .  A
O1109     Co1126   1.988       .  S
O1110      C1111   1.271       .  A
O1110     Co1125   2.024       .  S
C1111      C2651   1.477       .  S
C1112      C2486   1.516       .  S
C1113      C2598   1.498       .  S
C1114      C2497   1.473       .  S
O1115      C1128   1.279       .  A
O1115     Co1123   2.018       .  S
O1116      C1129   1.284       .  A
O1116     Co1124   1.960       .  S
O1117      C1130   1.262       .  A
O1117     Co1125   1.953       .  S
O1118      C1131   1.250       .  A
O1118     Co1126   1.976       .  S
O1119      C1131   1.262       .  A
O1119     Co1124   2.018       .  S
O1120      C1130   1.281       .  A
O1120     Co1123   2.069       .  S
O1121      C1128   1.268       .  A
O1121     Co1126   1.965       .  S
O1122      C1129   1.287       .  A
O1122     Co1125   2.027       .  S
Co1123     O1127   2.062       .  S
Co1124     O1127   1.973       .  S
Co1125     O1127   2.075       .  S
Co1126     O1127   2.098       .  S
C1128      C2469   1.473       .  S
C1129      C4530   1.486       .  S
C1130      C5062   1.529       .  S
C1131      C2710   1.500       .  S
O1132      C1140   1.260       .  A
O1132     Co1152   1.904       .  S
O1133      C1141   1.258       .  A
O1133     Co1153   1.953       .  S
O1134      C1142   1.263       .  A
O1134     Co1154   2.009       .  S
O1135      C1143   1.285       .  A
O1135     Co1155   2.068       .  S
O1136      C1142   1.258       .  A
O1136     Co1153   1.960       .  S
O1137      C1143   1.270       .  A
O1137     Co1152   1.973       .  S
O1138      C1141   1.263       .  A
O1138     Co1155   1.995       .  S
O1139      C1140   1.292       .  A
O1139     Co1154   2.100       .  S
C1140      C2542   1.498       .  S
C1141      C2500   1.474       .  S
C1142      C2637   1.480       .  S
C1143      C2455   1.511       .  S
O1144      C1157   1.262       .  A
O1144     Co1152   1.992       .  S
O1145      C1158   1.277       .  A
O1145     Co1153   2.023       .  S
O1146      C1159   1.268       .  A
O1146     Co1154   1.896       .  S
O1147      C1160   1.268       .  A
O1147     Co1155   1.963       .  S
O1148      C1160   1.275       .  A
O1148     Co1153   2.025       .  S
O1149      C1159   1.288       .  A
O1149     Co1152   2.085       .  S
O1150      C1157   1.255       .  A
O1150     Co1155   1.970       .  S
O1151      C1158   1.277       .  A
O1151     Co1154   1.992       .  S
Co1152     O1156   2.001       .  S
Co1153     O1156   2.012       .  S
Co1154     O1156   2.033       .  S
Co1155     O1156   2.048       .  S
C1157      C2430   1.477       .  S
C1158      C4163   1.508       .  S
C1159      C4782   1.485       .  S
C1160      C2441   1.510       .  S
O1161      C1169   1.299       .  A
O1161     Co1181   2.118       .  S
O1162      C1170   1.282       .  A
O1162     Co1182   2.042       .  S
O1163      C1171   1.279       .  A
O1163     Co1183   2.013       .  S
O1164      C1172   1.266       .  A
O1164     Co1184   2.000       .  S
O1165      C1171   1.275       .  A
O1165     Co1182   2.016       .  S
O1166      C1172   1.267       .  A
O1166     Co1181   2.014       .  S
O1167      C1170   1.268       .  A
O1167     Co1184   1.975       .  S
O1168      C1169   1.274       .  A
O1168     Co1183   1.892       .  S
C1169      C4919   1.494       .  S
C1170      C2696   1.504       .  S
C1171      C3942   1.525       .  S
C1172      C2413   1.506       .  S
O1173      C1186   1.271       .  A
O1173     Co1181   1.984       .  S
O1174      C1187   1.258       .  A
O1174     Co1182   1.962       .  S
O1175      C1188   1.292       .  A
O1175     Co1183   2.122       .  S
O1176      C1189   1.274       .  A
O1176     Co1184   2.065       .  S
O1177      C1189   1.250       .  A
O1177     Co1182   1.952       .  S
O1178      C1188   1.257       .  A
O1178     Co1181   1.881       .  S
O1179      C1186   1.283       .  A
O1179     Co1184   2.065       .  S
O1180      C1187   1.270       .  A
O1180     Co1183   2.023       .  S
Co1181     O1185   1.991       .  S
Co1182     O1185   2.004       .  S
Co1183     O1185   2.045       .  S
Co1184     O1185   2.083       .  S
C1186      C2458   1.522       .  S
C1187      C2581   1.483       .  S
C1188      C2528   1.489       .  S
C1189      C2483   1.513       .  S
O1190      C1198   1.278       .  A
O1190     Co1210   2.039       .  S
O1191      C1199   1.249       .  A
O1191     Co1211   1.982       .  S
O1192      C1200   1.291       .  A
O1192     Co1212   2.056       .  S
O1193      C1201   1.267       .  A
O1193     Co1213   1.971       .  S
O1194      C1200   1.283       .  A
O1194     Co1211   1.975       .  S
O1195      C1201   1.283       .  A
O1195     Co1210   2.042       .  S
O1196      C1199   1.255       .  A
O1196     Co1213   1.983       .  S
O1197      C1198   1.263       .  A
O1197     Co1212   1.956       .  S
C1198      C5020   1.519       .  S
C1199      C3071   1.477       .  S
C1200      C4096   1.502       .  S
C1201      C2343   1.497       .  S
O1202      C1215   1.249       .  A
O1202     Co1210   1.959       .  S
O1203      C1216   1.262       .  A
O1203     Co1211   1.986       .  S
O1204      C1217   1.269       .  A
O1204     Co1212   2.016       .  S
O1205      C1218   1.265       .  A
O1205     Co1213   1.972       .  S
O1206      C1218   1.278       .  A
O1206     Co1211   2.029       .  S
O1207      C1217   1.254       .  A
O1207     Co1210   1.947       .  S
O1208      C1215   1.263       .  A
O1208     Co1213   2.030       .  S
O1209      C1216   1.265       .  A
O1209     Co1212   2.020       .  S
Co1210     O1214   2.046       .  S
Co1211     O1214   1.980       .  S
Co1212     O1214   2.105       .  S
Co1213     O1214   2.104       .  S
C1215      C2385   1.495       .  S
C1216      C2371   1.503       .  S
C1217      C2360   1.474       .  S
C1218      C2399   1.496       .  S
O1219      C1227   1.268       .  A
O1219     Co1239   1.911       .  S
O1220      C1228   1.247       .  A
O1220     Co1240   1.944       .  S
O1221      C1229   1.267       .  A
O1221     Co1241   1.999       .  S
O1222      C1230   1.280       .  A
O1222     Co1242   2.053       .  S
O1223      C1229   1.251       .  A
O1223     Co1240   1.943       .  S
O1224      C1230   1.273       .  A
O1224     Co1239   1.977       .  S
O1225      C1228   1.278       .  A
O1225     Co1242   2.075       .  S
O1226      C1227   1.282       .  A
O1226     Co1241   2.095       .  S
C1227      C2304   1.495       .  S
C1228      C2402   1.501       .  S
C1229      C2287   1.480       .  S
C1230      C2329   1.520       .  S
O1231      C1244   1.272       .  A
O1231     Co1239   2.008       .  S
O1232      C1245   1.275       .  A
O1232     Co1240   2.017       .  S
O1233      C1246   1.266       .  A
O1233     Co1241   1.884       .  S
O1234      C1247   1.262       .  A
O1234     Co1242   1.973       .  S
O1235      C1247   1.278       .  A
O1235     Co1240   2.035       .  S
O1236      C1246   1.293       .  A
O1236     Co1239   2.114       .  S
O1237      C1244   1.263       .  A
O1237     Co1242   1.982       .  S
O1238      C1245   1.275       .  A
O1238     Co1241   1.983       .  S
Co1239     O1243   2.007       .  S
Co1240     O1243   2.012       .  S
Co1241     O1243   2.016       .  S
Co1242     O1243   2.060       .  S
C1244      C2514   1.498       .  S
C1245      C2315   1.506       .  S
C1246      C4880   1.495       .  S
C1247      C3144   1.491       .  S
O1248      C1256   1.262       .  A
O1248     Co1268   1.971       .  S
O1249      C1257   1.267       .  A
O1249     Co1269   1.973       .  S
O1250      C1258   1.292       .  A
O1250     Co1270   2.113       .  S
O1251      C1259   1.272       .  A
O1251     Co1271   2.049       .  S
O1252      C1258   1.260       .  A
O1252     Co1269   1.884       .  S
O1253      C1259   1.254       .  A
O1253     Co1268   1.962       .  S
O1254      C1257   1.283       .  A
O1254     Co1271   2.068       .  S
O1255      C1256   1.261       .  A
O1255     Co1270   2.000       .  S
C1256      C2276   1.485       .  S
C1257      C2332   1.531       .  S
C1258      C2262   1.483       .  S
C1259      C2388   1.500       .  S
O1260      C1273   1.278       .  A
O1260     Co1268   2.026       .  S
O1261      C1274   1.300       .  A
O1261     Co1269   2.110       .  S
O1262      C1275   1.279       .  A
O1262     Co1270   2.015       .  S
O1263      C1276   1.258       .  A
O1263     Co1271   1.987       .  S
O1264      C1276   1.259       .  A
O1264     Co1269   1.995       .  S
O1265      C1275   1.272       .  A
O1265     Co1268   2.003       .  S
O1266      C1273   1.264       .  A
O1266     Co1271   1.965       .  S
O1267      C1274   1.272       .  A
O1267     Co1270   1.891       .  S
Co1268     O1272   1.995       .  S
Co1269     O1272   1.980       .  S
Co1270     O1272   2.045       .  S
Co1271     O1272   2.073       .  S
C1273      C2245   1.484       .  S
C1274      C3956   1.502       .  S
C1275      C4292   1.538       .  S
C1276      C2570   1.494       .  S
O1277      C1285   1.272       .  A
O1277     Co1297   1.906       .  S
O1278      C1286   1.250       .  A
O1278     Co1298   1.934       .  S
O1279      C1287   1.243       .  A
O1279     Co1299   1.905       .  S
O1280      C1288   1.274       .  A
O1280     Co1300   2.045       .  S
O1281      C1287   1.257       .  A
O1281     Co1298   1.981       .  S
O1282      C1288   1.270       .  A
O1282     Co1297   1.987       .  S
O1283      C1286   1.275       .  A
O1283     Co1300   2.052       .  S
O1284      C1285   1.290       .  A
O1284     Co1299   2.070       .  S
C1285      C2301   1.489       .  S
C1286      C2217   1.499       .  S
C1287      C2259   1.480       .  S
C1288      C2234   1.519       .  S
O1289      C1302   1.279       .  A
O1289     Co1297   2.042       .  S
O1290      C1303   1.272       .  A
O1290     Co1298   2.017       .  S
O1291      C1304   1.233       .  A
O1291     Co1299   1.915       .  S
O1292      C1305   1.257       .  A
O1292     Co1300   1.967       .  S
O1293      C1305   1.263       .  A
O1293     Co1298   2.001       .  S
O1294      C1304   1.269       .  A
O1294     Co1297   2.059       .  S
O1295      C1302   1.256       .  A
O1295     Co1300   1.958       .  S
O1296      C1303   1.256       .  A
O1296     Co1299   1.950       .  S
Co1297     O1301   2.026       .  S
Co1298     O1301   2.106       .  S
Co1299     O1301   2.042       .  S
Co1300     O1301   2.080       .  S
C1302      C2203   1.486       .  S
C1303      C3967   1.486       .  S
C1304      C4894   1.515       .  S
C1305      C2920   1.500       .  S
O1306      C1314   1.284       .  A
O1306     Co1326   2.066       .  S
O1307      C1315   1.262       .  A
O1307     Co1327   1.998       .  S
O1308      C1316   1.268       .  A
O1308     Co1328   1.908       .  S
O1309      C1317   1.250       .  A
O1309     Co1329   1.929       .  S
O1310      C1316   1.295       .  A
O1310     Co1327   2.099       .  S
O1311      C1317   1.271       .  A
O1311     Co1326   2.019       .  S
O1312      C1315   1.255       .  A
O1312     Co1329   1.969       .  S
O1313      C1314   1.269       .  A
O1313     Co1328   1.992       .  S
C1314      C5034   1.526       .  S
C1315      C2934   1.502       .  S
C1316      C4306   1.500       .  S
C1317      C2472   1.471       .  S
O1318      C1331   1.249       .  A
O1318     Co1326   1.934       .  S
O1319      C1332   1.262       .  A
O1319     Co1327   1.903       .  S
O1320      C1333   1.256       .  A
O1320     Co1328   2.012       .  S
O1321      C1334   1.268       .  A
O1321     Co1329   2.008       .  S
O1322      C1334   1.267       .  A
O1322     Co1327   1.988       .  S
O1323      C1333   1.238       .  A
O1323     Co1326   1.944       .  S
O1324      C1331   1.276       .  A
O1324     Co1329   2.053       .  S
O1325      C1332   1.290       .  A
O1325     Co1328   2.088       .  S
Co1326     O1330   2.044       .  S
Co1327     O1330   2.024       .  S
Co1328     O1330   2.056       .  S
Co1329     O1330   2.066       .  S
C1331      C2189   1.515       .  S
C1332      C2273   1.494       .  S
C1333      C2357   1.464       .  S
C1334      C2220   1.510       .  S
O1335      C1343   1.277       .  A
O1335     Co1355   1.941       .  S
O1336      C1344   1.251       .  A
O1336     Co1356   1.956       .  S
O1337      C1345   1.242       .  A
O1337     Co1357   1.938       .  S
O1338      C1346   1.263       .  A
O1338     Co1358   2.003       .  S
O1339      C1345   1.248       .  A
O1339     Co1356   1.951       .  S
O1340      C1346   1.270       .  A
O1340     Co1355   1.996       .  S
O1341      C1344   1.278       .  A
O1341     Co1358   2.070       .  S
O1342      C1343   1.275       .  A
O1342     Co1357   2.020       .  S
C1343      C2374   1.510       .  S
C1344      C2231   1.518       .  S
C1345      C2290   1.462       .  S
C1346      C2192   1.516       .  S
O1347      C1360   1.277       .  A
O1347     Co1355   2.035       .  S
O1348      C1361   1.276       .  A
O1348     Co1356   2.018       .  S
O1349      C1362   1.246       .  A
O1349     Co1357   1.958       .  S
O1350      C1363   1.251       .  A
O1350     Co1358   1.976       .  S
O1351      C1363   1.257       .  A
O1351     Co1356   1.987       .  S
O1352      C1362   1.274       .  A
O1352     Co1355   2.077       .  S
O1353      C1360   1.255       .  A
O1353     Co1358   1.942       .  S
O1354      C1361   1.263       .  A
O1354     Co1357   1.962       .  S
Co1355     O1359   2.033       .  S
Co1356     O1359   2.106       .  S
Co1357     O1359   2.052       .  S
Co1358     O1359   2.084       .  S
C1360      C2444   1.507       .  S
C1361      C2175   1.514       .  S
C1362      C4110   1.529       .  S
C1363      C2161   1.476       .  S
O1364      C1372   1.284       .  A
O1364     Co1384   2.052       .  S
O1365      C1373   1.264       .  A
O1365     Co1385   2.012       .  S
O1366      C1374   1.265       .  A
O1366     Co1386   1.898       .  S
O1367      C1375   1.262       .  A
O1367     Co1387   1.967       .  S
O1368      C1374   1.290       .  A
O1368     Co1385   2.079       .  S
O1369      C1375   1.275       .  A
O1369     Co1384   2.029       .  S
O1370      C1373   1.258       .  A
O1370     Co1387   1.987       .  S
O1371      C1372   1.271       .  A
O1371     Co1386   1.979       .  S
C1372      C5076   1.502       .  S
C1373      C3382   1.490       .  S
C1374      C4712   1.490       .  S
C1375      C2626   1.506       .  S
O1376      C1389   1.254       .  A
O1376     Co1384   1.949       .  S
O1377      C1390   1.260       .  A
O1377     Co1385   1.907       .  S
O1378      C1391   1.253       .  A
O1378     Co1386   1.987       .  S
O1379      C1392   1.280       .  A
O1379     Co1387   2.050       .  S
O1380      C1392   1.261       .  A
O1380     Co1385   1.960       .  S
O1381      C1391   1.249       .  A
O1381     Co1384   1.964       .  S
O1382      C1389   1.274       .  A
O1382     Co1387   2.045       .  S
O1383      C1390   1.291       .  A
O1383     Co1386   2.096       .  S
Co1384     O1388   2.029       .  S
Co1385     O1388   2.023       .  S
Co1386     O1388   2.032       .  S
Co1387     O1388   2.059       .  S
C1389      C2147   1.495       .  S
C1390      C2119   1.492       .  S
C1391      C2105   1.467       .  S
C1392      C2133   1.496       .  S
O1393      C1401   1.291       .  A
O1393     Co1413   2.053       .  S
O1394      C1402   1.286       .  A
O1394     Co1414   2.066       .  S
O1395      C1403   1.275       .  A
O1395     Co1415   1.987       .  S
O1396      C1404   1.262       .  A
O1396     Co1416   2.011       .  S
O1397      C1403   1.270       .  A
O1397     Co1414   2.007       .  S
O1398      C1404   1.248       .  A
O1398     Co1413   1.968       .  S
O1399      C1402   1.256       .  A
O1399     Co1416   1.953       .  S
O1400      C1401   1.274       .  A
O1400     Co1415   1.905       .  S
C1401      C4625   1.486       .  S
C1402      C2553   1.500       .  S
C1403      C4488   1.509       .  S
C1404      C2049   1.492       .  S
O1405      C1418   1.257       .  A
O1405     Co1413   1.937       .  S
O1406      C1419   1.271       .  A
O1406     Co1414   1.995       .  S
O1407      C1420   1.257       .  A
O1407     Co1415   2.033       .  S
O1408      C1421   1.269       .  A
O1408     Co1416   2.031       .  S
O1409      C1421   1.257       .  A
O1409     Co1414   1.963       .  S
O1410      C1420   1.236       .  A
O1410     Co1413   1.941       .  S
O1411      C1418   1.284       .  A
O1411     Co1416   2.065       .  S
O1412      C1419   1.274       .  A
O1412     Co1415   2.024       .  S
Co1413     O1417   2.051       .  S
Co1414     O1417   2.041       .  S
Co1415     O1417   1.996       .  S
Co1416     O1417   2.103       .  S
C1418      C2091   1.502       .  S
C1419      C2077   1.518       .  S
C1420      C2066   1.473       .  S
C1421      C2150   1.498       .  S
O1422      C1430   1.260       .  A
O1422     Co1442   1.949       .  S
O1423      C1431   1.282       .  A
O1423     Co1443   2.057       .  S
O1424      C1432   1.281       .  A
O1424     Co1444   2.064       .  S
O1425      C1433   1.260       .  A
O1425     Co1445   1.948       .  S
O1426      C1432   1.247       .  A
O1426     Co1443   1.955       .  S
O1427      C1433   1.285       .  A
O1427     Co1442   2.051       .  S
O1428      C1431   1.253       .  A
O1428     Co1445   1.934       .  S
O1429      C1430   1.299       .  A
O1429     Co1444   2.080       .  S
C1430      C2035   1.487       .  S
C1431      C2136   1.494       .  S
C1432      C2024   1.503       .  S
C1433      C2094   1.507       .  S
O1434      C1447   1.252       .  A
O1434     Co1442   1.967       .  S
O1435      C1448   1.295       .  A
O1435     Co1443   2.003       .  S
O1436      C1449   1.312       .  A
O1436     Co1444   2.134       .  S
O1437      C1450   1.267       .  A
O1437     Co1445   2.016       .  S
O1438      C1450   1.262       .  A
O1438     Co1443   1.980       .  S
O1439      C1449   1.270       .  A
O1439     Co1442   1.868       .  S
O1440      C1447   1.260       .  A
O1440     Co1445   1.997       .  S
O1441      C1448   1.296       .  A
O1441     Co1444   2.019       .  S
Co1442     O1446   1.887       .  S
Co1443     O1446   1.999       .  S
Co1444     O1446   2.077       .  S
Co1445     O1446   2.042       .  S
C1447      C2007   1.489       .  S
C1448      C4852   1.527       .  S
C1449      C4936   1.522       .  S
C1450      C3438   1.492       .  S
O1451      C1459   1.290       .  A
O1451     Co1471   2.078       .  S
O1452      C1460   1.277       .  A
O1452     Co1472   2.031       .  S
O1453      C1461   1.268       .  A
O1453     Co1473   1.992       .  S
O1454      C1462   1.255       .  A
O1454     Co1474   2.008       .  S
O1455      C1461   1.268       .  A
O1455     Co1472   2.012       .  S
O1456      C1462   1.242       .  A
O1456     Co1471   1.955       .  S
O1457      C1460   1.266       .  A
O1457     Co1474   1.968       .  S
O1458      C1459   1.264       .  A
O1458     Co1473   1.909       .  S
C1459      C4866   1.488       .  S
C1460      C1968   1.486       .  S
C1461      C4726   1.504       .  S
C1462      C2427   1.477       .  S
O1463      C1476   1.262       .  A
O1463     Co1471   2.011       .  S
O1464      C1477   1.256       .  A
O1464     Co1472   1.957       .  S
O1465      C1478   1.261       .  A
O1465     Co1473   2.052       .  S
O1466      C1479   1.256       .  A
O1466     Co1474   1.999       .  S
O1467      C1479   1.254       .  A
O1467     Co1472   1.973       .  S
O1468      C1478   1.239       .  A
O1468     Co1471   1.933       .  S
O1469      C1476   1.247       .  A
O1469     Co1474   1.961       .  S
O1470      C1477   1.273       .  A
O1470     Co1473   2.028       .  S
Co1471     O1475   2.147       .  S
Co1472     O1475   2.079       .  S
Co1473     O1475   2.043       .  S
Co1474     O1475   2.141       .  S
C1476      C1993   1.486       .  S
C1477      C2122   1.502       .  S
C1478      C2021   1.504       .  S
C1479      C1979   1.479       .  S
O1480      C1488   1.263       .  A
O1480     Co1500   1.894       .  S
O1481      C1489   1.252       .  A
O1481     Co1501   1.952       .  S
O1482      C1490   1.258       .  A
O1482     Co1502   1.986       .  S
O1483      C1491   1.275       .  A
O1483     Co1503   2.026       .  S
O1484      C1490   1.253       .  A
O1484     Co1501   1.962       .  S
O1485      C1491   1.266       .  A
O1485     Co1500   1.971       .  S
O1486      C1489   1.276       .  A
O1486     Co1503   2.057       .  S
O1487      C1488   1.295       .  A
O1487     Co1502   2.114       .  S
C1488      C2038   1.491       .  S
C1489      C1954   1.492       .  S
C1490      C2063   1.472       .  S
C1491      C1996   1.506       .  S
O1492      C1505   1.263       .  A
O1492     Co1500   2.015       .  S
O1493      C1506   1.277       .  A
O1493     Co1501   2.040       .  S
O1494      C1507   1.270       .  A
O1494     Co1502   1.880       .  S
O1495      C1508   1.253       .  A
O1495     Co1503   1.930       .  S
O1496      C1508   1.273       .  A
O1496     Co1501   2.016       .  S
O1497      C1507   1.294       .  A
O1497     Co1500   2.092       .  S
O1498      C1505   1.259       .  A
O1498     Co1503   1.995       .  S
O1499      C1506   1.280       .  A
O1499     Co1502   2.024       .  S
Co1500     O1504   2.002       .  S
Co1501     O1504   2.032       .  S
Co1502     O1504   2.024       .  S
Co1503     O1504   2.060       .  S
C1505      C2416   1.508       .  S
C1506      C4642   1.526       .  S
C1507      C4947   1.485       .  S
C1508      C3228   1.464       .  S
O1509      C1517   1.254       .  A
O1509     Co1529   1.969       .  S
O1510      C1518   1.261       .  A
O1510     Co1530   1.986       .  S
O1511      C1519   1.258       .  A
O1511     Co1531   1.976       .  S
O1512      C1520   1.260       .  A
O1512     Co1532   1.964       .  S
O1513      C1519   1.264       .  A
O1513     Co1530   1.993       .  S
O1514      C1520   1.263       .  A
O1514     Co1529   1.990       .  S
O1515      C1518   1.268       .  A
O1515     Co1532   2.014       .  S
O1516      C1517   1.268       .  A
O1516     Co1531   2.013       .  S
C1517      C5090   1.477       .  S
C1518      C3284   1.520       .  S
C1519      C4502   1.475       .  S
C1520      C1940   1.496       .  S
O1521      C1534   1.264       .  A
O1521     Co1529   1.986       .  S
O1522      C1535   1.275       .  A
O1522     Co1530   2.073       .  S
O1523      C1536   1.230       .  A
O1523     Co1531   1.882       .  S
O1524      C1537   1.256       .  A
O1524     Co1532   1.925       .  S
O1525      C1537   1.280       .  A
O1525     Co1530   2.046       .  S
O1526      C1536   1.275       .  A
O1526     Co1529   2.062       .  S
O1527      C1534   1.263       .  A
O1527     Co1532   1.980       .  S
O1528      C1535   1.238       .  A
O1528     Co1531   1.931       .  S
Co1529     O1533   2.126       .  S
Co1530     O1533   2.129       .  S
Co1531     O1533   1.961       .  S
Co1532     O1533   2.022       .  S
C1534      C1982   1.497       .  S
C1535      C2080   1.513       .  S
C1536      C2108   1.469       .  S
C1537      C1951   1.506       .  S
O1538      C1546   1.264       .  A
O1538     Co1558   2.030       .  S
O1539      C1547   1.269       .  A
O1539     Co1559   2.021       .  S
O1540      C1548   1.264       .  A
O1540     Co1560   1.892       .  S
O1541      C1549   1.255       .  A
O1541     Co1561   1.955       .  S
O1542      C1548   1.289       .  A
O1542     Co1559   2.072       .  S
O1543      C1549   1.265       .  A
O1543     Co1558   1.985       .  S
O1544      C1547   1.264       .  A
O1544     Co1561   1.979       .  S
O1545      C1546   1.257       .  A
O1545     Co1560   2.024       .  S
C1546      C1898   1.513       .  S
C1547      C1923   1.503       .  S
C1548      C1881   1.481       .  S
C1549      C1909   1.485       .  S
O1550      C1563   1.261       .  A
O1550     Co1558   1.966       .  S
O1551      C1564   1.264       .  A
O1551     Co1559   1.894       .  S
O1552      C1565   1.273       .  A
O1552     Co1560   2.038       .  S
O1553      C1566   1.254       .  A
O1553     Co1561   1.985       .  S
O1554      C1566   1.254       .  A
O1554     Co1559   2.008       .  S
O1555      C1565   1.257       .  A
O1555     Co1558   1.974       .  S
O1556      C1563   1.264       .  A
O1556     Co1561   1.992       .  S
O1557      C1564   1.298       .  A
O1557     Co1560   2.097       .  S
Co1558     O1562   2.098       .  S
Co1559     O1562   2.049       .  S
Co1560     O1562   2.053       .  S
Co1561     O1562   2.104       .  S
C1563      C2052   1.479       .  S
C1564      C4261   1.495       .  S
C1565      C4600   1.521       .  S
C1566      C2248   1.505       .  S
O1567      C1575   1.278       .  A
O1567     Co1587   2.034       .  S
O1568      C1576   1.273       .  A
O1568     Co1588   2.045       .  S
O1569      C1577   1.238       .  A
O1569     Co1589   1.947       .  S
O1570      C1578   1.254       .  A
O1570     Co1590   1.945       .  S
O1571      C1577   1.254       .  A
O1571     Co1588   2.011       .  S
O1572      C1578   1.274       .  A
O1572     Co1587   2.031       .  S
O1573      C1576   1.245       .  A
O1573     Co1590   1.960       .  S
O1574      C1575   1.260       .  A
O1574     Co1589   1.938       .  S
C1575      C4964   1.476       .  S
C1576      C3659   1.494       .  S
C1577      C1853   1.471       .  S
C1578      C2010   1.480       .  S
O1579      C1592   1.242       .  A
O1579     Co1587   1.929       .  S
O1580      C1593   1.272       .  A
O1580     Co1588   1.909       .  S
O1581      C1594   1.243       .  A
O1581     Co1589   1.950       .  S
O1582      C1595   1.282       .  A
O1582     Co1590   2.070       .  S
O1583      C1595   1.257       .  A
O1583     Co1588   1.956       .  S
O1584      C1594   1.257       .  A
O1584     Co1587   1.996       .  S
O1585      C1592   1.266       .  A
O1585     Co1590   2.035       .  S
O1586      C1593   1.293       .  A
O1586     Co1589   2.073       .  S
Co1587     O1591   2.072       .  S
Co1588     O1591   1.968       .  S
Co1589     O1591   2.073       .  S
Co1590     O1591   2.079       .  S
C1592      C1912   1.474       .  S
C1593      C1828   1.507       .  S
C1594      C1839   1.476       .  S
C1595      C1867   1.503       .  S
O1596      C1604   1.303       .  A
O1596     Co1616   2.121       .  S
O1597      C1605   1.280       .  A
O1597     Co1617   2.085       .  S
O1598      C1606   1.269       .  A
O1598     Co1618   1.990       .  S
O1599      C1607   1.248       .  A
O1599     Co1619   1.957       .  S
O1600      C1606   1.268       .  A
O1600     Co1617   1.997       .  S
O1601      C1607   1.268       .  A
O1601     Co1616   2.047       .  S
O1602      C1605   1.244       .  A
O1602     Co1619   1.920       .  S
O1603      C1604   1.261       .  A
O1603     Co1618   1.873       .  S
C1604      C1797   1.487       .  S
C1605      C1870   1.519       .  S
C1606      C1811   1.508       .  S
C1607      C1926   1.503       .  S
O1608      C1621   1.271       .  A
O1608     Co1616   1.987       .  S
O1609      C1622   1.252       .  A
O1609     Co1617   1.968       .  S
O1610      C1623   1.300       .  A
O1610     Co1618   2.130       .  S
O1611      C1624   1.281       .  A
O1611     Co1619   2.092       .  S
O1612      C1624   1.238       .  A
O1612     Co1617   1.939       .  S
O1613      C1623   1.264       .  A
O1613     Co1616   1.887       .  S
O1614      C1621   1.275       .  A
O1614     Co1619   2.023       .  S
O1615      C1622   1.261       .  A
O1615     Co1618   2.005       .  S
Co1616     O1620   2.038       .  S
Co1617     O1620   2.034       .  S
Co1618     O1620   2.024       .  S
Co1619     O1620   2.058       .  S
C1621      C2346   1.514       .  S
C1622      C4684   1.503       .  S
C1623      C4989   1.505       .  S
C1624      C3802   1.510       .  S
O1625      C1633   1.258       .  A
O1625     Co1645   1.973       .  S
O1626      C1634   1.266       .  A
O1626     Co1646   2.000       .  S
O1627      C1635   1.278       .  A
O1627     Co1647   1.960       .  S
O1628      C1636   1.262       .  A
O1628     Co1648   2.025       .  S
O1629      C1635   1.282       .  A
O1629     Co1646   1.975       .  S
O1630      C1636   1.244       .  A
O1630     Co1645   1.960       .  S
O1631      C1634   1.263       .  A
O1631     Co1648   2.008       .  S
O1632      C1633   1.267       .  A
O1632     Co1647   2.008       .  S
C1633      C4978   1.488       .  S
C1634      C3536   1.508       .  S
C1635      C4614   1.463       .  S
C1636      C2206   1.486       .  S
O1637      C1650   1.262       .  A
O1637     Co1645   1.932       .  S
O1638      C1651   1.243       .  A
O1638     Co1646   1.983       .  S
O1639      C1652   1.290       .  A
O1639     Co1647   2.068       .  S
O1640      C1653   1.265       .  A
O1640     Co1648   1.979       .  S
O1641      C1653   1.269       .  A
O1641     Co1646   2.007       .  S
O1642      C1652   1.244       .  A
O1642     Co1645   1.921       .  S
O1643      C1650   1.279       .  A
O1643     Co1648   2.032       .  S
O1644      C1651   1.282       .  A
O1644     Co1647   2.107       .  S
Co1645     O1649   2.059       .  S
Co1646     O1649   2.045       .  S
Co1647     O1649   2.076       .  S
Co1648     O1649   2.070       .  S
C1650      C1769   1.463       .  S
C1651      C1895   1.520       .  S
C1652      C1842   1.497       .  S
C1653      C1783   1.482       .  S
O1654      C1662   1.269       .  A
O1654     Co1674   1.997       .  S
O1655      C1663   1.252       .  A
O1655     Co1675   2.003       .  S
O1656      C1664   1.289       .  A
O1656     Co1676   2.048       .  S
O1657      C1665   1.264       .  A
O1657     Co1677   1.955       .  S
O1658      C1664   1.282       .  A
O1658     Co1675   1.968       .  S
O1659      C1665   1.282       .  A
O1659     Co1674   2.040       .  S
O1660      C1663   1.246       .  A
O1660     Co1677   1.951       .  S
O1661      C1662   1.254       .  A
O1661     Co1676   1.934       .  S
C1662      C4698   1.474       .  S
C1663      C2164   1.486       .  S
C1664      C1741   1.515       .  S
C1665      C1965   1.485       .  S
O1666      C1679   1.251       .  A
O1666     Co1674   1.958       .  S
O1667      C1680   1.263       .  A
O1667     Co1675   2.004       .  S
O1668      C1681   1.275       .  A
O1668     Co1676   2.019       .  S
O1669      C1682   1.270       .  A
O1669     Co1677   1.957       .  S
O1670      C1682   1.279       .  A
O1670     Co1675   1.999       .  S
O1671      C1681   1.262       .  A
O1671     Co1674   1.971       .  S
O1672      C1679   1.260       .  A
O1672     Co1677   2.013       .  S
O1673      C1680   1.262       .  A
O1673     Co1676   1.999       .  S
Co1674     O1678   2.051       .  S
Co1675     O1678   1.976       .  S
Co1676     O1678   2.065       .  S
Co1677     O1678   2.070       .  S
C1679      C1755   1.491       .  S
C1680      C1825   1.514       .  S
C1681      C1814   1.499       .  S
C1682      C1772   1.486       .  S
O1683      C1691   1.259       .  A
O1683     Co1703   1.986       .  S
O1684      C1692   1.276       .  A
O1684     Co1704   2.022       .  S
O1685      C1693   1.258       .  A
O1685     Co1705   1.992       .  S
O1686      C1694   1.262       .  A
O1686     Co1706   1.956       .  S
O1687      C1693   1.250       .  A
O1687     Co1704   1.980       .  S
O1688      C1694   1.271       .  A
O1688     Co1703   2.009       .  S
O1689      C1692   1.267       .  A
O1689     Co1706   1.968       .  S
O1690      C1691   1.255       .  A
O1690     Co1705   1.959       .  S
C1691      C1800   1.488       .  S
C1692      C1786   1.484       .  S
C1693      C1884   1.478       .  S
C1694      C1758   1.482       .  S
O1695      C1708   1.264       .  A
O1695     Co1703   1.972       .  S
O1696      C1709   1.278       .  A
O1696     Co1704   1.915       .  S
O1697      C1710   1.292       .  A
O1697     Co1705   2.074       .  S
O1698      C1711   1.261       .  A
O1698     Co1706   2.003       .  S
O1699      C1711   1.258       .  A
O1699     Co1704   1.974       .  S
O1700      C1710   1.273       .  A
O1700     Co1703   1.938       .  S
O1701      C1708   1.270       .  A
O1701     Co1706   2.005       .  S
O1702      C1709   1.286       .  A
O1702     Co1705   2.032       .  S
Co1703     O1707   1.943       .  S
Co1704     O1707   1.929       .  S
Co1705     O1707   2.117       .  S
Co1706     O1707   2.039       .  S
C1708      C1937   1.507       .  S
C1709      C4275   1.473       .  S
C1710      C5006   1.534       .  S
C1711      C3508   1.486       .  S
O1712      C1720   1.273       .  A
O1712     Co1732   1.981   1_545  S
O1713      C1721   1.265       .  A
O1713     Co1733   1.986       .  S
O1714      C1722   1.267       .  A
O1714     Co1734   1.983       .  S
O1715      C1723   1.296       .  A
O1715     Co1735   2.115       .  S
O1716      C1722   1.268       .  A
O1716     Co1733   1.976   1_545  S
O1717      C1723   1.272       .  A
O1717     Co1732   1.921       .  S
O1718      C1721   1.267       .  A
O1718     Co1735   2.013       .  S
O1719      C1720   1.285       .  A
O1719     Co1734   2.044       .  S
C1720      C3704   1.497       .  S
C1721      C2318   1.501       .  S
C1722      C1856   1.487       .  S
C1723      C3186   1.506       .  S
O1724      C1737   1.287       .  A
O1724     Co1732   2.087       .  S
O1725      C1738   1.274       .  A
O1725     Co1733   2.024   1_545  S
O1726      C1739   1.264       .  A
O1726     Co1734   1.994       .  S
O1727      C1740   1.267       .  A
O1727     Co1735   1.978       .  S
O1728      C1740   1.279       .  A
O1728     Co1733   2.030       .  S
O1729      C1739   1.273       .  A
O1729     Co1732   2.024   1_545  S
O1730      C1737   1.270       .  A
O1730     Co1735   1.864       .  S
O1731      C1738   1.274       .  A
O1731     Co1734   1.988       .  S
Co1732     O1736   1.996   1_565  S
Co1733     O1736   2.022   1_565  S
Co1734     O1736   2.004       .  S
Co1735     O1736   1.988   1_565  S
C1737      C2990   1.478       .  S
C1738      C1744   1.512       .  S
C1739      C3606   1.496       .  S
C1740      C2178   1.485       .  S
C1741      C1742   1.427       .  A
C1741      C1746   1.416       .  A
C1742      C1743   1.416       .  A
C1742      C1747   1.453       .  S
C1743      C1744   1.418       .  A
C1743      C1750   1.454       .  S
C1744      C1745   1.422       .  A
C1745      C1746   1.420       .  A
C1745      C1748   1.451       .  S
C1746      C1749   1.449       .  S
C1747      N1754   1.158       .  T
C1748      N1753   1.157   1_545  T
C1749      N1751   1.157       .  T
C1750      N1752   1.158       .  T
C1755      C1756   1.414       .  A
C1755      C1760   1.420       .  A
C1756      C1757   1.407       .  A
C1756      C1761   1.451       .  S
C1757      C1758   1.414       .  A
C1757      C1764   1.453       .  S
C1758      C1759   1.409       .  A
C1759      C1760   1.412       .  A
C1759      C1762   1.452       .  S
C1760      C1763   1.451       .  S
C1761      N1768   1.157       .  T
C1762      N1767   1.158       .  T
C1763      N1765   1.157       .  T
C1764      N1766   1.157       .  T
C1769      C1770   1.400       .  A
C1769      C1774   1.410       .  A
C1770      C1771   1.404       .  A
C1770      C1775   1.451       .  S
C1771      C1772   1.423       .  A
C1771      C1778   1.450       .  S
C1772      C1773   1.417       .  A
C1773      C1774   1.405       .  A
C1773      C1776   1.451       .  S
C1774      C1777   1.453       .  S
C1775      N1782   1.157       .  T
C1776      N1781   1.157       .  T
C1777      N1779   1.157       .  T
C1778      N1780   1.156       .  T
C1783      C1784   1.413       .  A
C1783      C1788   1.412       .  A
C1784      C1785   1.407       .  A
C1784      C1789   1.452       .  S
C1785      C1786   1.411       .  A
C1785      C1792   1.452       .  S
C1786      C1787   1.414       .  A
C1787      C1788   1.416       .  A
C1787      C1790   1.448       .  S
C1788      C1791   1.451       .  S
C1789      N1796   1.157       .  T
C1790      N1795   1.157       .  T
C1791      N1793   1.157       .  T
C1792      N1794   1.157       .  T
C1797      C1798   1.419       .  A
C1797      C1802   1.410       .  A
C1798      C1799   1.411       .  A
C1798      C1803   1.449       .  S
C1799      C1800   1.414       .  A
C1799      C1806   1.453       .  S
C1800      C1801   1.418       .  A
C1801      C1802   1.404       .  A
C1801      C1804   1.455       .  S
C1802      C1805   1.449       .  S
C1803      N1810   1.156       .  T
C1804      N1809   1.157       .  T
C1805      N1807   1.157       .  T
C1806      N1808   1.157       .  T
C1811      C1812   1.417       .  A
C1811      C1816   1.427       .  A
C1812      C1813   1.414       .  A
C1812      C1817   1.451       .  S
C1813      C1814   1.418       .  A
C1813      C1820   1.453       .  S
C1814      C1815   1.412       .  A
C1815      C1816   1.410       .  A
C1815      C1818   1.453       .  S
C1816      C1819   1.451       .  S
C1817      N1824   1.157       .  T
C1818      N1823   1.157       .  T
C1819      N1821   1.157       .  T
C1820      N1822   1.157       .  T
C1825      C1826   1.420       .  A
C1825      C1830   1.428       .  A
C1826      C1827   1.421       .  A
C1826      C1831   1.451       .  S
C1827      C1828   1.420       .  A
C1827      C1834   1.451       .  S
C1828      C1829   1.411       .  A
C1829      C1830   1.409       .  A
C1829      C1832   1.452       .  S
C1830      C1833   1.451       .  S
C1831      N1838   1.158       .  T
C1832      N1837   1.156       .  T
C1833      N1835   1.156       .  T
C1834      N1836   1.158       .  T
C1839      C1840   1.413       .  A
C1839      C1844   1.405       .  A
C1840      C1841   1.415       .  A
C1840      C1845   1.450       .  S
C1841      C1842   1.417       .  A
C1841      C1848   1.450       .  S
C1842      C1843   1.433       .  A
C1843      C1844   1.401       .  A
C1843      C1846   1.455       .  S
C1844      C1847   1.457       .  S
C1845      N1852   1.157       .  T
C1846      N1851   1.157       .  T
C1847      N1849   1.158       .  T
C1848      N1850   1.157       .  T
C1853      C1854   1.407       .  A
C1853      C1858   1.409       .  A
C1854      C1855   1.400       .  A
C1854      C1859   1.450       .  S
C1855      C1856   1.424       .  A
C1855      C1862   1.456       .  S
C1856      C1857   1.418       .  A
C1857      C1858   1.409       .  A
C1857      C1860   1.449       .  S
C1858      C1861   1.450       .  S
C1859      N1866   1.156       .  T
C1860      N1865   1.157       .  T
C1861      N1863   1.157       .  T
C1862      N1864   1.158       .  T
C1867      C1868   1.417       .  A
C1867      C1872   1.408       .  A
C1868      C1869   1.420       .  A
C1868      C1873   1.447       .  S
C1869      C1870   1.415       .  A
C1869      C1876   1.446       .  S
C1870      C1871   1.433       .  A
C1871      C1872   1.417       .  A
C1871      C1874   1.452       .  S
C1872      C1875   1.454       .  S
C1873      N1880   1.157       .  T
C1874      N1879   1.157       .  T
C1875      N1877   1.157       .  T
C1876      N1878   1.156       .  T
C1881      C1882   1.410       .  A
C1881      C1886   1.414       .  A
C1882      C1883   1.398       .  A
C1882      C1887   1.452       .  S
C1883      C1884   1.410       .  A
C1883      C1890   1.449       .  S
C1884      C1885   1.412       .  A
C1885      C1886   1.415       .  A
C1885      C1888   1.444       .  S
C1886      C1889   1.451       .  S
C1887      N1894   1.155       .  T
C1888      N1893   1.155       .  T
C1889      N1891   1.158       .  T
C1890      N1892   1.157       .  T
C1895      C1896   1.420       .  A
C1895      C1900   1.415       .  A
C1896      C1897   1.418       .  A
C1896      C1901   1.451       .  S
C1897      C1898   1.414       .  A
C1897      C1904   1.444       .  S
C1898      C1899   1.416       .  A
C1899      C1900   1.427       .  A
C1899      C1902   1.448       .  S
C1900      C1903   1.441       .  S
C1901      N1908   1.157       .  T
C1902      N1907   1.157       .  T
C1903      N1905   1.156       .  T
C1904      N1906   1.156       .  T
C1909      C1910   1.411       .  A
C1909      C1914   1.418       .  A
C1910      C1911   1.409       .  A
C1910      C1915   1.452       .  S
C1911      C1912   1.418       .  A
C1911      C1918   1.451       .  S
C1912      C1913   1.401       .  A
C1913      C1914   1.407       .  A
C1913      C1916   1.450       .  S
C1914      C1917   1.447       .  S
C1915      N1922   1.157       .  T
C1916      N1921   1.157       .  T
C1917      N1919   1.156       .  T
C1918      N1920   1.157       .  T
C1923      C1924   1.418       .  A
C1923      C1928   1.416       .  A
C1924      C1925   1.421       .  A
C1924      C1929   1.451       .  S
C1925      C1926   1.412       .  A
C1925      C1932   1.441       .  S
C1926      C1927   1.419       .  A
C1927      C1928   1.411       .  A
C1927      C1930   1.454       .  S
C1928      C1931   1.453       .  S
C1929      N1936   1.157       .  T
C1930      N1935   1.157       .  T
C1931      N1933   1.158       .  T
C1932      N1934   1.154       .  T
C1937      C1938   1.423       .  A
C1937      C1942   1.417       .  A
C1938      C1939   1.415   1_655  A
C1938      C1943   1.451       .  S
C1939      C1940   1.415       .  A
C1939      C1946   1.452       .  S
C1940      C1941   1.417       .  A
C1941      C1942   1.408   1_455  A
C1941      C1944   1.450       .  S
C1942      C1945   1.452       .  S
C1943      N1950   1.157       .  T
C1944      N1949   1.156       .  T
C1945      N1947   1.157       .  T
C1946      N1948   1.157       .  T
C1951      C1952   1.417       .  A
C1951      C1956   1.420       .  A
C1952      C1953   1.416       .  A
C1952      C1957   1.450       .  S
C1953      C1954   1.419       .  A
C1953      C1960   1.450       .  S
C1954      C1955   1.404       .  A
C1955      C1956   1.408       .  A
C1955      C1958   1.442       .  S
C1956      C1959   1.449       .  S
C1957      N1964   1.157       .  T
C1958      N1963   1.155       .  T
C1959      N1961   1.157       .  T
C1960      N1962   1.157       .  T
C1965      C1966   1.409       .  A
C1965      C1970   1.415       .  A
C1966      C1967   1.405   1_655  A
C1966      C1971   1.451       .  S
C1967      C1968   1.413       .  A
C1967      C1974   1.449       .  S
C1968      C1969   1.411       .  A
C1969      C1970   1.416   1_455  A
C1969      C1972   1.448       .  S
C1970      C1973   1.447       .  S
C1971      N1978   1.156       .  T
C1972      N1977   1.157       .  T
C1973      N1975   1.156       .  T
C1974      N1976   1.156       .  T
C1979      C1980   1.409       .  A
C1979      C1984   1.412       .  A
C1980      C1981   1.409       .  A
C1980      C1985   1.454       .  S
C1981      C1982   1.419       .  A
C1981      C1988   1.453       .  S
C1982      C1983   1.417       .  A
C1983      C1984   1.414       .  A
C1983      C1986   1.450       .  S
C1984      C1987   1.450       .  S
C1985      N1992   1.158       .  T
C1986      N1991   1.157       .  T
C1987      N1989   1.157       .  T
C1988      N1990   1.158       .  T
C1993      C1994   1.409       .  A
C1993      C1998   1.409       .  A
C1994      C1995   1.417       .  A
C1994      C1999   1.450       .  S
C1995      C1996   1.426       .  A
C1995      C2002   1.450       .  S
C1996      C1997   1.416       .  A
C1997      C1998   1.410       .  A
C1997      C2000   1.448       .  S
C1998      C2001   1.448       .  S
C1999      N2006   1.157       .  T
C2000      N2005   1.156       .  T
C2001      N2003   1.156       .  T
C2002      N2004   1.158       .  T
C2007      C2008   1.417       .  A
C2007      C2012   1.416       .  A
C2008      C2009   1.408       .  A
C2008      C2013   1.452       .  S
C2009      C2010   1.410       .  A
C2009      C2016   1.451       .  S
C2010      C2011   1.412       .  A
C2011      C2012   1.411       .  A
C2011      C2014   1.452       .  S
C2012      C2015   1.451       .  S
C2013      N2020   1.157       .  T
C2014      N2019   1.157       .  T
C2015      N2017   1.157       .  T
C2016      N2018   1.157       .  T
C2021      C2022   1.425       .  A
C2021      C2026   1.414       .  A
C2022      C2023   1.416       .  A
C2022      C2027   1.453       .  S
C2023      C2024   1.417       .  A
C2023      C2030   1.446       .  S
C2024      C2025   1.415       .  A
C2025      C2026   1.403       .  A
C2025      C2028   1.450       .  S
C2026      C2029   1.443       .  S
C2027      N2034   1.158       .  T
C2028      N2033   1.157       .  T
C2029      N2031   1.156       .  T
C2030      N2032   1.156       .  T
C2035      C2036   1.411       .  A
C2035      C2040   1.412       .  A
C2036      C2037   1.414       .  A
C2036      C2041   1.452       .  S
C2037      C2038   1.417       .  A
C2037      C2044   1.448       .  S
C2038      C2039   1.413       .  A
C2039      C2040   1.407       .  A
C2039      C2042   1.451       .  S
C2040      C2043   1.446       .  S
C2041      N2048   1.157       .  T
C2042      N2047   1.156       .  T
C2043      N2045   1.155       .  T
C2044      N2046   1.157       .  T
C2049      C2050   1.415       .  A
C2049      C2054   1.418       .  A
C2050      C2051   1.418       .  A
C2050      C2055   1.449       .  S
C2051      C2052   1.410       .  A
C2051      C2058   1.447       .  S
C2052      C2053   1.404       .  A
C2053      C2054   1.406       .  A
C2053      C2056   1.453       .  S
C2054      C2057   1.447       .  S
C2055      N2062   1.157       .  T
C2056      N2061   1.157       .  T
C2057      N2059   1.155       .  T
C2058      N2060   1.156       .  T
C2063      C2064   1.404       .  A
C2063      C2068   1.415       .  A
C2064      C2065   1.402       .  A
C2064      C2069   1.448       .  S
C2065      C2066   1.410       .  A
C2065      C2072   1.442       .  S
C2066      C2067   1.408       .  A
C2067      C2068   1.407       .  A
C2067      C2070   1.450       .  S
C2068      C2071   1.449       .  S
C2069      N2076   1.157       .  T
C2070      N2075   1.157       .  T
C2071      N2073   1.157       .  T
C2072      N2074   1.156       .  T
C2077      C2078   1.423       .  A
C2077      C2082   1.422       .  A
C2078      C2079   1.418       .  A
C2078      C2083   1.443       .  S
C2079      C2080   1.409       .  A
C2079      C2086   1.449       .  S
C2080      C2081   1.425       .  A
C2081      C2082   1.416       .  A
C2081      C2084   1.452       .  S
C2082      C2085   1.455       .  S
C2083      N2090   1.155       .  T
C2084      N2089   1.158       .  T
C2085      N2087   1.158       .  T
C2086      N2088   1.156       .  T
C2091      C2092   1.407       .  A
C2091      C2096   1.423       .  A
C2092      C2093   1.414       .  A
C2092      C2097   1.451       .  S
C2093      C2094   1.428       .  A
C2093      C2100   1.449       .  S
C2094      C2095   1.410       .  A
C2095      C2096   1.416       .  A
C2095      C2098   1.450       .  S
C2096      C2099   1.451       .  S
C2097      N2104   1.157       .  T
C2098      N2103   1.157       .  T
C2099      N2101   1.157       .  T
C2100      N2102   1.156       .  T
C2105      C2106   1.411       .  A
C2105      C2110   1.412       .  A
C2106      C2107   1.405       .  A
C2106      C2111   1.447       .  S
C2107      C2108   1.401       .  A
C2107      C2114   1.444       .  S
C2108      C2109   1.418       .  A
C2109      C2110   1.402       .  A
C2109      C2112   1.455       .  S
C2110      C2113   1.454       .  S
C2111      N2118   1.157       .  T
C2112      N2117   1.158       .  T
C2113      N2115   1.158       .  T
C2114      N2116   1.155       .  T
C2119      C2120   1.413       .  A
C2119      C2124   1.410       .  A
C2120      C2121   1.410       .  A
C2120      C2125   1.447       .  S
C2121      C2122   1.418       .  A
C2121      C2128   1.452       .  S
C2122      C2123   1.424       .  A
C2123      C2124   1.412       .  A
C2123      C2126   1.450       .  S
C2124      C2127   1.454       .  S
C2125      N2132   1.156       .  T
C2126      N2131   1.157       .  T
C2127      N2129   1.157       .  T
C2128      N2130   1.157       .  T
C2133      C2134   1.406       .  A
C2133      C2138   1.421       .  A
C2134      C2135   1.412       .  A
C2134      C2139   1.449       .  S
C2135      C2136   1.423       .  A
C2135      C2142   1.449       .  S
C2136      C2137   1.403       .  A
C2137      C2138   1.413       .  A
C2137      C2140   1.448       .  S
C2138      C2141   1.443       .  S
C2139      N2146   1.157       .  T
C2140      N2145   1.157       .  T
C2141      N2143   1.156       .  T
C2142      N2144   1.157       .  T
C2147      C2148   1.414       .  A
C2147      C2152   1.415       .  A
C2148      C2149   1.410       .  A
C2148      C2153   1.452       .  S
C2149      C2150   1.415       .  A
C2149      C2156   1.451       .  S
C2150      C2151   1.417       .  A
C2151      C2152   1.420       .  A
C2151      C2154   1.449       .  S
C2152      C2155   1.450       .  S
C2153      N2160   1.157       .  T
C2154      N2159   1.157       .  T
C2155      N2157   1.157       .  T
C2156      N2158   1.157       .  T
C2161      C2162   1.412       .  A
C2161      C2166   1.407       .  A
C2162      C2163   1.415   1_565  A
C2162      C2167   1.451       .  S
C2163      C2164   1.415       .  A
C2163      C2170   1.450       .  S
C2164      C2165   1.421       .  A
C2165      C2166   1.403   1_545  A
C2165      C2168   1.453       .  S
C2166      C2169   1.454       .  S
C2167      N2174   1.157       .  T
C2168      N2173   1.157       .  T
C2169      N2171   1.157       .  T
C2170      N2172   1.157       .  T
C2175      C2176   1.433       .  A
C2175      C2180   1.422       .  A
C2176      C2177   1.410       .  A
C2176      C2181   1.453       .  S
C2177      C2178   1.402       .  A
C2177      C2184   1.449       .  S
C2178      C2179   1.402       .  A
C2179      C2180   1.413       .  A
C2179      C2182   1.444       .  S
C2180      C2183   1.444       .  S
C2181      N2188   1.157       .  T
C2182      N2187   1.157   1_565  T
C2183      N2185   1.156       .  T
C2184      N2186   1.156       .  T
C2189      C2190   1.414       .  A
C2189      C2194   1.427       .  A
C2190      C2191   1.425       .  A
C2190      C2195   1.449       .  S
C2191      C2192   1.429       .  A
C2191      C2198   1.451       .  S
C2192      C2193   1.406       .  A
C2193      C2194   1.411       .  A
C2193      C2196   1.450       .  S
C2194      C2197   1.447       .  S
C2195      N2202   1.157       .  T
C2196      N2201   1.156       .  T
C2197      N2199   1.156       .  T
C2198      N2200   1.158       .  T
C2203      C2204   1.410       .  A
C2203      C2208   1.417       .  A
C2204      C2205   1.411   1_565  A
C2204      C2209   1.451       .  S
C2205      C2206   1.416       .  A
C2205      C2212   1.452       .  S
C2206      C2207   1.412       .  A
C2207      C2208   1.416   1_545  A
C2207      C2210   1.450       .  S
C2208      C2211   1.451       .  S
C2209      N2216   1.157       .  T
C2210      N2215   1.157       .  T
C2211      N2213   1.157       .  T
C2212      N2214   1.157       .  T
C2217      C2218   1.414       .  A
C2217      C2222   1.410       .  A
C2218      C2219   1.407       .  A
C2218      C2223   1.453       .  S
C2219      C2220   1.416       .  A
C2219      C2226   1.446       .  S
C2220      C2221   1.430       .  A
C2221      C2222   1.420       .  A
C2221      C2224   1.451       .  S
C2222      C2225   1.450       .  S
C2223      N2230   1.157       .  T
C2224      N2229   1.158       .  T
C2225      N2227   1.157       .  T
C2226      N2228   1.156       .  T
C2231      C2232   1.414       .  A
C2231      C2236   1.420       .  A
C2232      C2233   1.429       .  A
C2232      C2237   1.446       .  S
C2233      C2234   1.420       .  A
C2233      C2240   1.446       .  S
C2234      C2235   1.418       .  A
C2235      C2236   1.419       .  A
C2235      C2238   1.449       .  S
C2236      C2239   1.455       .  S
C2237      N2244   1.157       .  T
C2238      N2243   1.157       .  T
C2239      N2241   1.158       .  T
C2240      N2242   1.156       .  T
C2245      C2246   1.413       .  A
C2245      C2250   1.404       .  A
C2246      C2247   1.418       .  A
C2246      C2251   1.448       .  S
C2247      C2248   1.419       .  A
C2247      C2254   1.450       .  S
C2248      C2249   1.426       .  A
C2249      C2250   1.406       .  A
C2249      C2252   1.449       .  S
C2250      C2253   1.454       .  S
C2251      N2258   1.156       .  T
C2252      N2257   1.156       .  T
C2253      N2255   1.157       .  T
C2254      N2256   1.157       .  T
C2259      C2260   1.412       .  A
C2259      C2264   1.420       .  A
C2260      C2261   1.402       .  A
C2260      C2265   1.453       .  S
C2261      C2262   1.416       .  A
C2261      C2268   1.448       .  S
C2262      C2263   1.414       .  A
C2263      C2264   1.402       .  A
C2263      C2266   1.451       .  S
C2264      C2267   1.457       .  S
C2265      N2272   1.157       .  T
C2266      N2271   1.156       .  T
C2267      N2269   1.158       .  T
C2268      N2270   1.157       .  T
C2273      C2274   1.421       .  A
C2273      C2278   1.417       .  A
C2274      C2275   1.414       .  A
C2274      C2279   1.452       .  S
C2275      C2276   1.415       .  A
C2275      C2282   1.452       .  S
C2276      C2277   1.409       .  A
C2277      C2278   1.399       .  A
C2277      C2280   1.453       .  S
C2278      C2281   1.446       .  S
C2279      N2286   1.157       .  T
C2280      N2285   1.156       .  T
C2281      N2283   1.154       .  T
C2282      N2284   1.158       .  T
C2287      C2288   1.414       .  A
C2287      C2292   1.425       .  A
C2288      C2289   1.395       .  A
C2288      C2293   1.447       .  S
C2289      C2290   1.412       .  A
C2289      C2296   1.457       .  S
C2290      C2291   1.407       .  A
C2291      C2292   1.404       .  A
C2291      C2294   1.452       .  S
C2292      C2295   1.454       .  S
C2293      N2300   1.154       .  T
C2294      N2299   1.157       .  T
C2295      N2297   1.158       .  T
C2296      N2298   1.157       .  T
C2301      C2302   1.415       .  A
C2301      C2306   1.402       .  A
C2302      C2303   1.416       .  A
C2302      C2307   1.447       .  S
C2303      C2304   1.411       .  A
C2303      C2310   1.449       .  S
C2304      C2305   1.420       .  A
C2305      C2306   1.411       .  A
C2305      C2308   1.445       .  S
C2306      C2309   1.447       .  S
C2307      N2314   1.156       .  T
C2308      N2313   1.156       .  T
C2309      N2311   1.155       .  T
C2310      N2312   1.157       .  T
C2315      C2316   1.420       .  A
C2315      C2320   1.419       .  A
C2316      C2317   1.416       .  A
C2316      C2321   1.454       .  S
C2317      C2318   1.415       .  A
C2317      C2324   1.444       .  S
C2318      C2319   1.411       .  A
C2319      C2320   1.414       .  A
C2319      C2322   1.456       .  S
C2320      C2323   1.442       .  S
C2321      N2328   1.157       .  T
C2322      N2327   1.157       .  T
C2323      N2325   1.155       .  T
C2324      N2326   1.155       .  T
C2329      C2330   1.402       .  A
C2329      C2334   1.422       .  A
C2330      C2331   1.397       .  A
C2330      C2335   1.447       .  S
C2331      C2332   1.419       .  A
C2331      C2338   1.436       .  S
C2332      C2333   1.429       .  A
C2333      C2334   1.436       .  A
C2333      C2336   1.447       .  S
C2334      C2337   1.447       .  S
C2335      N2342   1.157       .  T
C2336      N2341   1.158       .  T
C2337      N2339   1.157       .  T
C2338      N2340   1.152       .  T
C2343      C2344   1.399       .  A
C2343      C2348   1.414       .  A
C2344      C2345   1.401       .  A
C2344      C2349   1.443       .  S
C2345      C2346   1.418       .  A
C2345      C2352   1.443       .  S
C2346      C2347   1.427       .  A
C2347      C2348   1.425       .  A
C2347      C2350   1.449       .  S
C2348      C2351   1.449       .  S
C2349      N2356   1.156       .  T
C2350      N2355   1.157       .  T
C2351      N2353   1.157       .  T
C2352      N2354   1.156       .  T
C2357      C2358   1.412       .  A
C2357      C2362   1.411       .  A
C2358      C2359   1.403       .  A
C2358      C2363   1.449       .  S
C2359      C2360   1.413       .  A
C2359      C2366   1.454       .  S
C2360      C2361   1.409       .  A
C2361      C2362   1.402       .  A
C2361      C2364   1.446       .  S
C2362      C2365   1.451       .  S
C2363      N2370   1.156       .  T
C2364      N2369   1.154       .  T
C2365      N2367   1.157       .  T
C2366      N2368   1.157       .  T
C2371      C2372   1.416       .  A
C2371      C2376   1.423       .  A
C2372      C2373   1.418       .  A
C2372      C2377   1.455       .  S
C2373      C2374   1.433       .  A
C2373      C2380   1.452       .  S
C2374      C2375   1.407       .  A
C2375      C2376   1.410       .  A
C2375      C2378   1.452       .  S
C2376      C2379   1.441       .  S
C2377      N2384   1.158       .  T
C2378      N2383   1.157       .  T
C2379      N2381   1.155       .  T
C2380      N2382   1.157       .  T
C2385      C2386   1.412       .  A
C2385      C2390   1.413       .  A
C2386      C2387   1.420       .  A
C2386      C2391   1.449       .  S
C2387      C2388   1.413       .  A
C2387      C2394   1.441       .  S
C2388      C2389   1.416       .  A
C2389      C2390   1.413       .  A
C2389      C2392   1.451       .  S
C2390      C2393   1.452       .  S
C2391      N2398   1.157       .  T
C2392      N2397   1.158       .  T
C2393      N2395   1.157       .  T
C2394      N2396   1.154       .  T
C2399      C2400   1.413       .  A
C2399      C2404   1.410       .  A
C2400      C2401   1.414       .  A
C2400      C2405   1.452       .  S
C2401      C2402   1.417       .  A
C2401      C2408   1.449       .  S
C2402      C2403   1.420       .  A
C2403      C2404   1.420       .  A
C2403      C2406   1.446       .  S
C2404      C2407   1.449       .  S
C2405      N2412   1.157       .  T
C2406      N2411   1.156       .  T
C2407      N2409   1.157       .  T
C2408      N2410   1.156       .  T
C2413      C2414   1.416       .  A
C2413      C2418   1.417       .  A
C2414      C2415   1.417   1_565  A
C2414      C2419   1.449       .  S
C2415      C2416   1.416       .  A
C2415      C2422   1.450       .  S
C2416      C2417   1.418       .  A
C2417      C2418   1.420   1_545  A
C2417      C2420   1.450       .  S
C2418      C2421   1.451       .  S
C2419      N2426   1.157       .  T
C2420      N2425   1.157       .  T
C2421      N2423   1.157       .  T
C2422      N2424   1.157       .  T
C2427      C2428   1.411       .  A
C2427      C2432   1.412       .  A
C2428      C2429   1.411   1_545  A
C2428      C2433   1.449       .  S
C2429      C2430   1.415       .  A
C2429      C2436   1.451       .  S
C2430      C2431   1.409       .  A
C2431      C2432   1.403   1_565  A
C2431      C2434   1.453       .  S
C2432      C2435   1.448       .  S
C2433      N2440   1.157       .  T
C2434      N2439   1.157       .  T
C2435      N2437   1.156       .  T
C2436      N2438   1.157       .  T
C2441      C2442   1.425       .  A
C2441      C2446   1.418       .  A
C2442      C2443   1.419   1_455  A
C2442      C2447   1.452       .  S
C2443      C2444   1.416       .  A
C2443      C2450   1.452       .  S
C2444      C2445   1.427       .  A
C2445      C2446   1.409   1_655  A
C2445      C2448   1.457       .  S
C2446      C2449   1.454       .  S
C2447      N2454   1.158       .  T
C2448      N2453   1.158       .  T
C2449      N2451   1.157       .  T
C2450      N2452   1.158       .  T
C2455      C2456   1.411       .  A
C2455      C2460   1.413       .  A
C2456      C2457   1.416       .  A
C2456      C2461   1.449       .  S
C2457      C2458   1.417       .  A
C2457      C2464   1.446       .  S
C2458      C2459   1.419       .  A
C2459      C2460   1.428       .  A
C2459      C2462   1.437       .  S
C2460      C2463   1.448       .  S
C2461      N2468   1.156       .  T
C2462      N2467   1.153       .  T
C2463      N2465   1.157       .  T
C2464      N2466   1.156       .  T
C2469      C2470   1.404       .  A
C2469      C2474   1.407       .  A
C2470      C2471   1.402   1_455  A
C2470      C2475   1.444       .  S
C2471      C2472   1.401       .  A
C2471      C2478   1.445       .  S
C2472      C2473   1.418       .  A
C2473      C2474   1.409   1_655  A
C2473      C2476   1.451       .  S
C2474      C2477   1.450       .  S
C2475      N2482   1.157       .  T
C2476      N2481   1.157       .  T
C2477      N2479   1.157       .  T
C2478      N2480   1.156       .  T
C2483      C2484   1.423       .  A
C2483      C2488   1.411       .  A
C2484      C2485   1.417       .  A
C2484      C2489   1.453       .  S
C2485      C2486   1.416       .  A
C2485      C2492   1.452       .  S
C2486      C2487   1.423       .  A
C2487      C2488   1.421       .  A
C2487      C2490   1.449       .  S
C2488      C2491   1.447       .  S
C2489      N2496   1.157       .  T
C2490      N2495   1.157       .  T
C2491      N2493   1.158       .  T
C2492      N2494   1.158       .  T
C2497      C2498   1.409       .  A
C2497      C2502   1.410       .  A
C2498      C2499   1.398       .  A
C2498      C2503   1.448       .  S
C2499      C2500   1.411       .  A
C2499      C2506   1.453       .  S
C2500      C2501   1.416       .  A
C2501      C2502   1.410       .  A
C2501      C2504   1.451       .  S
C2502      C2505   1.449       .  S
C2503      N2510   1.155       .  T
C2504      N2509   1.158       .  T
C2505      N2507   1.157       .  T
C2506      N2508   1.157       .  T
C2511      C2512   1.422       .  A
C2511      C2516   1.414       .  A
C2512      C2513   1.411       .  A
C2512      C2517   1.450       .  S
C2513      C2514   1.411       .  A
C2513      C2520   1.454       .  S
C2514      C2515   1.420       .  A
C2515      C2516   1.419       .  A
C2515      C2518   1.452       .  S
C2516      C2519   1.450       .  S
C2517      N2524   1.156       .  T
C2518      N2523   1.157       .  T
C2519      N2521   1.157       .  T
C2520      N2522   1.158       .  T
C2525      C2526   1.415       .  A
C2525      C2530   1.409       .  A
C2526      C2527   1.413       .  A
C2526      C2531   1.449       .  S
C2527      C2528   1.411       .  A
C2527      C2534   1.450       .  S
C2528      C2529   1.414       .  A
C2529      C2530   1.415       .  A
C2529      C2532   1.449       .  S
C2530      C2533   1.445       .  S
C2531      N2538   1.156       .  T
C2532      N2537   1.157       .  T
C2533      N2535   1.156       .  T
C2534      N2536   1.157       .  T
C2539      C2540   1.418       .  A
C2539      C2544   1.420       .  A
C2540      C2541   1.415       .  A
C2540      C2545   1.449       .  S
C2541      C2542   1.418       .  A
C2541      C2548   1.449       .  S
C2542      C2543   1.411       .  A
C2543      C2544   1.406       .  A
C2543      C2546   1.450       .  S
C2544      C2547   1.454       .  S
C2545      N2552   1.156       .  T
C2546      N2551   1.157       .  T
C2547      N2549   1.158       .  T
C2548      N2550   1.157       .  T
C2553      C2554   1.404       .  A
C2553      C2558   1.418       .  A
C2554      C2555   1.404       .  A
C2554      C2559   1.442       .  S
C2555      C2556   1.409       .  A
C2555      C2562   1.441       .  S
C2556      C2557   1.418       .  A
C2557      C2558   1.422       .  A
C2557      C2560   1.450       .  S
C2558      C2561   1.450       .  S
C2559      N2566   1.157       .  T
C2560      N2565   1.157       .  T
C2561      N2563   1.157       .  T
C2562      N2564   1.156       .  T
C2567      C2568   1.416       .  A
C2567      C2572   1.420       .  A
C2568      C2569   1.414       .  A
C2568      C2573   1.451       .  S
C2569      C2570   1.415       .  A
C2569      C2576   1.452       .  S
C2570      C2571   1.416       .  A
C2571      C2572   1.413       .  A
C2571      C2574   1.453       .  S
C2572      C2575   1.452       .  S
C2573      N2580   1.158       .  T
C2574      N2579   1.158       .  T
C2575      N2577   1.157       .  T
C2576      N2578   1.157       .  T
C2581      C2582   1.409       .  A
C2581      C2586   1.413       .  A
C2582      C2583   1.404       .  A
C2582      C2587   1.441       .  S
C2583      C2584   1.409       .  A
C2583      C2590   1.448       .  S
C2584      C2585   1.417       .  A
C2585      C2586   1.408       .  A
C2585      C2588   1.453       .  S
C2586      C2589   1.449       .  S
C2587      N2594   1.154       .  T
C2588      N2593   1.157       .  T
C2589      N2591   1.156       .  T
C2590      N2592   1.156       .  T
C2595      C2596   1.407       .  A
C2595      C2600   1.417       .  A
C2596      C2597   1.405       .  A
C2596      C2601   1.445       .  S
C2597      C2598   1.413       .  A
C2597      C2604   1.443       .  S
C2598      C2599   1.414       .  A
C2599      C2600   1.409       .  A
C2599      C2602   1.453       .  S
C2600      C2603   1.445       .  S
C2601      N2608   1.156       .  T
C2602      N2607   1.158       .  T
C2603      N2605   1.154       .  T
C2604      N2606   1.155       .  T
C2609      C2610   1.420       .  A
C2609      C2614   1.414       .  A
C2610      C2611   1.407       .  A
C2610      C2615   1.454       .  S
C2611      C2612   1.418       .  A
C2611      C2618   1.456       .  S
C2612      C2613   1.415       .  A
C2613      C2614   1.424       .  A
C2613      C2616   1.447       .  S
C2614      C2617   1.444       .  S
C2615      N2622   1.157       .  T
C2616      N2621   1.157       .  T
C2617      N2619   1.157       .  T
C2618      N2620   1.157       .  T
C2623      C2624   1.419       .  A
C2623      C2628   1.420       .  A
C2624      C2625   1.417       .  A
C2624      C2629   1.453       .  S
C2625      C2626   1.420       .  A
C2625      C2632   1.452       .  S
C2626      C2627   1.414       .  A
C2627      C2628   1.417       .  A
C2627      C2630   1.454       .  S
C2628      C2631   1.441       .  S
C2629      N2636   1.157       .  T
C2630      N2635   1.157       .  T
C2631      N2633   1.154       .  T
C2632      N2634   1.158       .  T
C2637      C2638   1.407       .  A
C2637      C2642   1.413       .  A
C2638      C2639   1.412       .  A
C2638      C2643   1.451       .  S
C2639      C2640   1.423       .  A
C2639      C2646   1.453       .  S
C2640      C2641   1.410       .  A
C2641      C2642   1.407       .  A
C2641      C2644   1.442       .  S
C2642      C2645   1.455       .  S
C2643      N2650   1.157       .  T
C2644      N2649   1.154       .  T
C2645      N2647   1.158       .  T
C2646      N2648   1.158       .  T
C2651      C2652   1.402       .  A
C2651      C2656   1.407       .  A
C2652      C2653   1.402       .  A
C2652      C2657   1.445       .  S
C2653      C2654   1.415       .  A
C2653      C2660   1.449       .  S
C2654      C2655   1.411       .  A
C2655      C2656   1.410       .  A
C2655      C2658   1.448       .  S
C2656      C2659   1.445       .  S
C2657      N2664   1.154       .  T
C2658      N2663   1.157       .  T
C2659      N2661   1.157       .  T
C2660      N2662   1.157       .  T
C2665      C2666   1.417       .  A
C2665      C2670   1.415       .  A
C2666      C2667   1.419       .  A
C2666      C2671   1.447       .  S
C2667      C2668   1.406       .  A
C2667      C2674   1.439       .  S
C2668      C2669   1.406       .  A
C2669      C2670   1.411       .  A
C2669      C2672   1.449       .  S
C2670      C2673   1.447       .  S
C2671      N2678   1.157       .  T
C2672      N2677   1.158       .  T
C2673      N2675   1.156       .  T
C2674      N2676   1.154       .  T
C2679      C2680   1.419       .  A
C2679      C2684   1.415       .  A
C2680      C2681   1.406       .  A
C2680      C2685   1.450       .  S
C2681      C2682   1.410       .  A
C2681      C2688   1.454       .  S
C2682      C2683   1.417       .  A
C2683      C2684   1.418       .  A
C2683      C2686   1.449       .  S
C2684      C2687   1.450       .  S
C2685      N2692   1.156       .  T
C2686      N2691   1.157       .  T
C2687      N2689   1.157       .  T
C2688      N2690   1.157       .  T
C2693      C2694   1.419       .  A
C2693      C2698   1.414       .  A
C2694      C2695   1.412   1_556  A
C2694      C2699   1.452       .  S
C2695      C2696   1.414       .  A
C2695      C2702   1.451       .  S
C2696      C2697   1.420       .  A
C2697      C2698   1.422   1_554  A
C2697      C2700   1.450       .  S
C2698      C2701   1.450       .  S
C2699      N2706   1.157       .  T
C2700      N2705   1.157       .  T
C2701      N2703   1.157       .  T
C2702      N2704   1.156       .  T
C2707      C2708   1.421       .  A
C2707      C2712   1.409       .  A
C2708      C2709   1.422   1_556  A
C2708      C2713   1.448       .  S
C2709      C2710   1.412       .  A
C2709      C2716   1.450       .  S
C2710      C2711   1.421       .  A
C2711      C2712   1.412   1_554  A
C2711      C2714   1.447       .  S
C2712      C2715   1.454       .  S
C2713      N2720   1.157       .  T
C2714      N2719   1.156       .  T
C2715      N2717   1.157       .  T
C2716      N2718   1.157       .  T
C2721      C2722   1.418       .  A
C2721      C2726   1.424       .  A
C2722      C2723   1.425       .  A
C2722      C2727   1.450       .  S
C2723      C2724   1.427       .  A
C2723      C2730   1.452       .  S
C2724      C2725   1.413       .  A
C2725      C2726   1.423       .  A
C2725      C2728   1.451       .  S
C2726      C2729   1.444       .  S
C2727      N2734   1.157       .  T
C2728      N2733   1.157       .  T
C2729      N2731   1.155       .  T
C2730      N2732   1.158       .  T
C2735      C2736   1.419       .  A
C2735      C2740   1.432       .  A
C2736      C2737   1.403       .  A
C2736      C2741   1.451       .  S
C2737      C2738   1.414       .  A
C2737      C2744   1.455       .  S
C2738      C2739   1.413       .  A
C2739      C2740   1.427       .  A
C2739      C2742   1.449       .  S
C2740      C2743   1.450       .  S
C2741      N2748   1.157       .  T
C2742      N2747   1.157       .  T
C2743      N2745   1.158       .  T
C2744      N2746   1.157       .  T
C2749      C2750   1.413       .  A
C2749      C2754   1.422       .  A
C2750      C2751   1.413       .  A
C2750      C2755   1.450       .  S
C2751      C2752   1.416       .  A
C2751      C2758   1.450       .  S
C2752      C2753   1.401       .  A
C2753      C2754   1.399       .  A
C2753      C2756   1.454       .  S
C2754      C2757   1.446       .  S
C2755      N2762   1.157       .  T
C2756      N2761   1.156       .  T
C2757      N2759   1.154       .  T
C2758      N2760   1.157       .  T
C2763      C2764   1.419       .  A
C2763      C2768   1.425       .  A
C2764      C2765   1.405       .  A
C2764      C2769   1.455       .  S
C2765      C2766   1.416       .  A
C2765      C2772   1.454       .  S
C2766      C2767   1.412       .  A
C2767      C2768   1.411       .  A
C2767      C2770   1.453       .  S
C2768      C2771   1.453       .  S
C2769      N2776   1.158       .  T
C2770      N2775   1.158       .  T
C2771      N2773   1.157       .  T
C2772      N2774   1.157       .  T
C2777      C2778   1.413       .  A
C2777      C2782   1.402       .  A
C2778      C2779   1.397       .  A
C2778      C2783   1.449       .  S
C2779      C2780   1.408       .  A
C2779      C2786   1.447       .  S
C2780      C2781   1.423       .  A
C2781      C2782   1.398       .  A
C2781      C2784   1.451       .  S
C2782      C2785   1.447       .  S
C2783      N2790   1.156       .  T
C2784      N2789   1.157       .  T
C2785      N2787   1.156       .  T
C2786      N2788   1.157       .  T
C2791      C2792   1.409       .  A
C2791      C2796   1.425       .  A
C2792      C2793   1.408       .  A
C2792      C2797   1.456       .  S
C2793      C2794   1.425       .  A
C2793      C2800   1.445       .  S
C2794      C2795   1.421       .  A
C2795      C2796   1.413       .  A
C2795      C2798   1.454       .  S
C2796      C2799   1.454       .  S
C2797      N2804   1.158       .  T
C2798      N2803   1.158       .  T
C2799      N2801   1.158       .  T
C2800      N2802   1.156       .  T
C2805      C2806   1.423       .  A
C2805      C2810   1.413       .  A
C2806      C2807   1.421       .  A
C2806      C2811   1.451       .  S
C2807      C2808   1.412       .  A
C2807      C2814   1.449       .  S
C2808      C2809   1.417       .  A
C2809      C2810   1.417       .  A
C2809      C2812   1.448       .  S
C2810      C2813   1.447       .  S
C2811      N2818   1.157       .  T
C2812      N2817   1.157       .  T
C2813      N2815   1.155       .  T
C2814      N2816   1.157       .  T
C2819      C2820   1.410       .  A
C2819      C2824   1.418       .  A
C2820      C2821   1.419       .  A
C2820      C2825   1.452       .  S
C2821      C2822   1.422       .  A
C2821      C2828   1.448       .  S
C2822      C2823   1.410       .  A
C2823      C2824   1.409       .  A
C2823      C2826   1.451       .  S
C2824      C2827   1.448       .  S
C2825      N2832   1.158       .  T
C2826      N2831   1.156       .  T
C2827      N2829   1.156       .  T
C2828      N2830   1.157       .  T
C2833      C2834   1.415       .  A
C2833      C2838   1.418       .  A
C2834      C2835   1.417       .  A
C2834      C2839   1.448       .  S
C2835      C2836   1.417       .  A
C2835      C2842   1.452       .  S
C2836      C2837   1.408       .  A
C2837      C2838   1.425       .  A
C2837      C2840   1.447       .  S
C2838      C2841   1.437       .  S
C2839      N2846   1.156       .  T
C2840      N2845   1.157       .  T
C2841      N2843   1.153       .  T
C2842      N2844   1.157       .  T
C2847      C2848   1.422       .  A
C2847      C2852   1.421       .  A
C2848      C2849   1.418       .  A
C2848      C2853   1.452       .  S
C2849      C2850   1.418       .  A
C2849      C2856   1.452       .  S
C2850      C2851   1.422       .  A
C2851      C2852   1.420       .  A
C2851      C2854   1.452       .  S
C2852      C2855   1.452       .  S
C2853      N2860   1.157       .  T
C2854      N2859   1.158       .  T
C2855      N2857   1.158       .  T
C2856      N2858   1.157       .  T
C2861      C2862   1.410       .  A
C2861      C2866   1.412       .  A
C2862      C2863   1.405       .  A
C2862      C2867   1.444       .  S
C2863      C2864   1.413       .  A
C2863      C2870   1.451       .  S
C2864      C2865   1.415       .  A
C2865      C2866   1.403       .  A
C2865      C2868   1.453       .  S
C2866      C2869   1.451       .  S
C2867      N2874   1.154       .  T
C2868      N2873   1.157       .  T
C2869      N2871   1.156       .  T
C2870      N2872   1.157       .  T
C2875      C2876   1.408       .  A
C2875      C2880   1.404       .  A
C2876      C2877   1.403       .  A
C2876      C2881   1.456       .  S
C2877      C2878   1.410       .  A
C2877      C2884   1.446       .  S
C2878      C2879   1.420       .  A
C2879      C2880   1.412       .  A
C2879      C2882   1.450       .  S
C2880      C2883   1.448       .  S
C2881      N2888   1.158       .  T
C2882      N2887   1.157       .  T
C2883      N2885   1.157       .  T
C2884      N2886   1.157       .  T
C2889      C2890   1.412       .  A
C2889      C2894   1.425       .  A
C2890      C2891   1.419       .  A
C2890      C2895   1.451       .  S
C2891      C2892   1.429       .  A
C2891      C2898   1.452       .  S
C2892      C2893   1.411       .  A
C2893      C2894   1.414       .  A
C2893      C2896   1.454       .  S
C2894      C2897   1.447       .  S
C2895      N2902   1.158       .  T
C2896      N2901   1.158       .  T
C2897      N2899   1.155       .  T
C2898      N2900   1.158       .  T
C2903      C2904   1.425       .  A
C2903      C2908   1.426       .  A
C2904      C2905   1.401       .  A
C2904      C2909   1.450       .  S
C2905      C2906   1.414       .  A
C2905      C2912   1.458       .  S
C2906      C2907   1.415       .  A
C2907      C2908   1.430       .  A
C2907      C2910   1.449       .  S
C2908      C2911   1.448       .  S
C2909      N2916   1.156       .  T
C2910      N2915   1.157       .  T
C2911      N2913   1.157       .  T
C2912      N2914   1.157       .  T
C2917      C2918   1.416       .  A
C2917      C2922   1.422       .  A
C2918      C2919   1.413   1_556  A
C2918      C2923   1.452       .  S
C2919      C2920   1.419       .  A
C2919      C2926   1.453       .  S
C2920      C2921   1.419       .  A
C2921      C2922   1.411   1_554  A
C2921      C2924   1.454       .  S
C2922      C2925   1.455       .  S
C2923      N2930   1.157       .  T
C2924      N2929   1.158       .  T
C2925      N2927   1.158       .  T
C2926      N2928   1.157       .  T
C2931      C2932   1.424       .  A
C2931      C2936   1.416       .  A
C2932      C2933   1.412   1_556  A
C2932      C2937   1.454       .  S
C2933      C2934   1.419       .  A
C2933      C2940   1.455       .  S
C2934      C2935   1.421       .  A
C2935      C2936   1.413   1_554  A
C2935      C2938   1.453       .  S
C2936      C2939   1.451       .  S
C2937      N2944   1.158       .  T
C2938      N2943   1.158       .  T
C2939      N2941   1.157       .  T
C2940      N2942   1.158       .  T
C2945      C2946   1.411       .  A
C2945      C2950   1.413       .  A
C2946      C2947   1.408   1_655  A
C2946      C2951   1.450       .  S
C2947      C2948   1.414       .  A
C2947      C2954   1.451       .  S
C2948      C2949   1.416       .  A
C2949      C2950   1.408   1_455  A
C2949      C2952   1.451       .  S
C2950      C2953   1.453       .  S
C2951      N2958   1.157       .  T
C2952      N2957   1.157       .  T
C2953      N2955   1.157       .  T
C2954      N2956   1.157       .  T
C2959      C2960   1.421       .  A
C2959      C2964   1.413       .  A
C2960      C2961   1.413       .  A
C2960      C2965   1.451       .  S
C2961      C2962   1.411       .  A
C2961      C2968   1.451       .  S
C2962      C2963   1.423       .  A
C2963      C2964   1.419       .  A
C2963      C2966   1.451       .  S
C2964      C2967   1.450       .  S
C2965      N2972   1.157       .  T
C2966      N2971   1.158       .  T
C2967      N2969   1.157       .  T
C2968      N2970   1.157       .  T
C2973      C2974   1.416       .  A
C2973      C2978   1.419       .  A
C2974      C2975   1.415   1_655  A
C2974      C2979   1.452       .  S
C2975      C2976   1.420       .  A
C2975      C2982   1.453       .  S
C2976      C2977   1.419       .  A
C2977      C2978   1.414   1_455  A
C2977      C2980   1.451       .  S
C2978      C2981   1.453       .  S
C2979      N2986   1.157       .  T
C2980      N2985   1.157       .  T
C2981      N2983   1.158       .  T
C2982      N2984   1.158       .  T
C2987      C2988   1.420       .  A
C2987      C2992   1.419       .  A
C2988      C2989   1.403       .  A
C2988      C2993   1.455       .  S
C2989      C2990   1.420       .  A
C2989      C2996   1.455       .  S
C2990      C2991   1.408       .  A
C2991      C2992   1.398       .  A
C2991      C2994   1.452       .  S
C2992      C2995   1.453       .  S
C2993      N3000   1.158       .  T
C2994      N2999   1.157       .  T
C2995      N2997   1.157       .  T
C2996      N2998   1.157       .  T
C3001      C3002   1.409       .  A
C3001      C3006   1.408       .  A
C3002      C3003   1.409       .  A
C3002      C3007   1.439       .  S
C3003      C3004   1.408       .  A
C3003      C3010   1.449       .  S
C3004      C3005   1.413       .  A
C3005      C3006   1.401       .  A
C3005      C3008   1.447       .  S
C3006      C3009   1.453       .  S
C3007      N3014   1.153       .  T
C3008      N3013   1.157       .  T
C3009      N3011   1.156       .  T
C3010      N3012   1.157       .  T
C3015      C3016   1.407       .  A
C3015      C3020   1.409       .  A
C3016      C3017   1.404       .  A
C3016      C3021   1.445       .  S
C3017      C3018   1.420       .  A
C3017      C3024   1.451       .  S
C3018      C3019   1.416       .  A
C3019      C3020   1.419       .  A
C3019      C3022   1.447       .  S
C3020      C3023   1.448       .  S
C3021      N3028   1.155       .  T
C3022      N3027   1.157       .  T
C3023      N3025   1.157       .  T
C3024      N3026   1.156       .  T
C3029      C3030   1.420       .  A
C3029      C3034   1.417       .  A
C3030      C3031   1.410       .  A
C3030      C3035   1.450       .  S
C3031      C3032   1.413       .  A
C3031      C3038   1.453       .  S
C3032      C3033   1.414       .  A
C3033      C3034   1.414       .  A
C3033      C3036   1.452       .  S
C3034      C3037   1.449       .  S
C3035      N3042   1.156       .  T
C3036      N3041   1.157       .  T
C3037      N3039   1.157       .  T
C3038      N3040   1.157       .  T
C3043      C3044   1.427       .  A
C3043      C3048   1.421       .  A
C3044      C3045   1.403       .  A
C3044      C3049   1.454       .  S
C3045      C3046   1.403       .  A
C3045      C3052   1.452       .  S
C3046      C3047   1.409       .  A
C3047      C3048   1.393       .  A
C3047      C3050   1.458       .  S
C3048      C3051   1.454       .  S
C3049      N3056   1.158       .  T
C3050      N3055   1.157       .  T
C3051      N3053   1.157       .  T
C3052      N3054   1.156       .  T
C3057      C3058   1.425       .  A
C3057      C3062   1.422       .  A
C3058      C3059   1.410       .  A
C3058      C3063   1.453       .  S
C3059      C3060   1.412       .  A
C3059      C3066   1.451       .  S
C3060      C3061   1.412       .  A
C3061      C3062   1.417       .  A
C3061      C3064   1.450       .  S
C3062      C3065   1.451       .  S
C3063      N3070   1.158       .  T
C3064      N3069   1.157       .  T
C3065      N3067   1.157       .  T
C3066      N3068   1.156       .  T
C3071      C3072   1.403       .  A
C3071      C3076   1.408       .  A
C3072      C3073   1.413       .  A
C3072      C3077   1.453       .  S
C3073      C3074   1.432       .  A
C3073      C3080   1.452       .  S
C3074      C3075   1.423       .  A
C3075      C3076   1.410       .  A
C3075      C3078   1.451       .  S
C3076      C3079   1.452       .  S
C3077      N3084   1.158       .  T
C3078      N3083   1.158       .  T
C3079      N3081   1.157       .  T
C3080      N3082   1.158       .  T
C3085      C3086   1.409       .  A
C3085      C3090   1.412       .  A
C3086      C3087   1.413       .  A
C3086      C3091   1.450       .  S
C3087      C3088   1.413       .  A
C3087      C3094   1.448       .  S
C3088      C3089   1.412       .  A
C3089      C3090   1.407       .  A
C3089      C3092   1.452       .  S
C3090      C3093   1.451       .  S
C3091      N3098   1.157       .  T
C3092      N3097   1.157       .  T
C3093      N3095   1.157       .  T
C3094      N3096   1.156       .  T
C3099      C3100   1.406       .  A
C3099      C3104   1.402       .  A
C3100      C3101   1.413       .  A
C3100      C3105   1.451       .  S
C3101      C3102   1.424       .  A
C3101      C3108   1.451       .  S
C3102      C3103   1.419       .  A
C3103      C3104   1.402       .  A
C3103      C3106   1.446       .  S
C3104      C3107   1.453       .  S
C3105      N3112   1.157       .  T
C3106      N3111   1.155       .  T
C3107      N3109   1.157       .  T
C3108      N3110   1.158       .  T
C3113      C3114   1.415       .  A
C3113      C3118   1.416       .  A
C3114      C3115   1.426       .  A
C3114      C3119   1.449       .  S
C3115      C3116   1.415       .  A
C3115      C3122   1.440       .  S
C3116      C3117   1.419       .  A
C3117      C3118   1.409       .  A
C3117      C3120   1.452       .  S
C3118      C3121   1.455       .  S
C3119      N3126   1.157       .  T
C3120      N3125   1.157       .  T
C3121      N3123   1.158       .  T
C3122      N3124   1.155       .  T
C3127      C3128   1.421       .  A
C3127      C3132   1.416       .  A
C3128      C3129   1.419       .  A
C3128      C3133   1.451       .  S
C3129      C3130   1.416       .  A
C3129      C3136   1.451       .  S
C3130      C3131   1.422       .  A
C3131      C3132   1.415       .  A
C3131      C3134   1.452       .  S
C3132      C3135   1.453       .  S
C3133      N3140   1.157       .  T
C3134      N3139   1.157       .  T
C3135      N3137   1.157       .  T
C3136      N3138   1.157       .  T
C3141      C3142   1.413       .  A
C3141      C3146   1.417       .  A
C3142      C3143   1.415       .  A
C3142      C3147   1.449       .  S
C3143      C3144   1.411       .  A
C3143      C3150   1.447       .  S
C3144      C3145   1.410       .  A
C3145      C3146   1.414       .  A
C3145      C3148   1.451       .  S
C3146      C3149   1.451       .  S
C3147      N3154   1.157       .  T
C3148      N3153   1.157       .  T
C3149      N3151   1.157       .  T
C3150      N3152   1.157       .  T
C3155      C3156   1.420       .  A
C3155      C3160   1.425       .  A
C3156      C3157   1.405       .  A
C3156      C3161   1.454       .  S
C3157      C3158   1.408       .  A
C3157      C3164   1.448       .  S
C3158      C3159   1.398       .  A
C3159      C3160   1.406       .  A
C3159      C3162   1.450       .  S
C3160      C3163   1.448       .  S
C3161      N3168   1.157       .  T
C3162      N3167   1.157       .  T
C3163      N3165   1.156       .  T
C3164      N3166   1.157       .  T
C3169      C3170   1.419       .  A
C3169      C3174   1.409       .  A
C3170      C3171   1.425       .  A
C3170      C3175   1.447       .  S
C3171      C3172   1.414       .  A
C3171      C3178   1.448       .  S
C3172      C3173   1.409       .  A
C3173      C3174   1.405       .  A
C3173      C3176   1.443       .  S
C3174      C3177   1.449       .  S
C3175      N3182   1.157       .  T
C3176      N3181   1.153       .  T
C3177      N3179   1.156       .  T
C3178      N3180   1.157       .  T
C3183      C3184   1.424       .  A
C3183      C3188   1.410       .  A
C3184      C3185   1.425       .  A
C3184      C3189   1.449       .  S
C3185      C3186   1.414       .  A
C3185      C3192   1.448       .  S
C3186      C3187   1.414       .  A
C3187      C3188   1.408       .  A
C3187      C3190   1.443       .  S
C3188      C3191   1.452       .  S
C3189      N3196   1.157       .  T
C3190      N3195   1.155       .  T
C3191      N3193   1.157       .  T
C3192      N3194   1.157       .  T
C3197      C3198   1.410       .  A
C3197      C3202   1.414       .  A
C3198      C3199   1.418       .  A
C3198      C3203   1.446       .  S
C3199      C3200   1.414       .  A
C3199      C3206   1.443       .  S
C3200      C3201   1.412       .  A
C3201      C3202   1.400       .  A
C3201      C3204   1.455       .  S
C3202      C3205   1.451       .  S
C3203      N3210   1.157       .  T
C3204      N3209   1.157       .  T
C3205      N3207   1.156       .  T
C3206      N3208   1.157       .  T
C3211      C3212   1.419       .  A
C3211      C3216   1.419       .  A
C3212      C3213   1.420       .  A
C3212      C3217   1.449       .  S
C3213      C3214   1.415       .  A
C3213      C3220   1.451       .  S
C3214      C3215   1.415       .  A
C3215      C3216   1.421       .  A
C3215      C3218   1.451       .  S
C3216      C3219   1.447       .  S
C3217      N3224   1.156       .  T
C3218      N3223   1.157       .  T
C3219      N3221   1.157       .  T
C3220      N3222   1.157       .  T
C3225      C3226   1.410       .  A
C3225      C3230   1.413       .  A
C3226      C3227   1.398   1_556  A
C3226      C3231   1.450       .  S
C3227      C3228   1.405       .  A
C3227      C3234   1.450       .  S
C3228      C3229   1.410       .  A
C3229      C3230   1.403   1_554  A
C3229      C3232   1.449       .  S
C3230      C3233   1.452       .  S
C3231      N3238   1.156       .  T
C3232      N3237   1.157       .  T
C3233      N3235   1.157       .  T
C3234      N3236   1.157       .  T
C3239      C3240   1.426       .  A
C3239      C3244   1.405       .  A
C3240      C3241   1.410   1_565  A
C3240      C3245   1.456       .  S
C3241      C3242   1.415       .  A
C3241      C3248   1.454       .  S
C3242      C3243   1.434       .  A
C3243      C3244   1.418   1_545  A
C3243      C3246   1.452       .  S
C3244      C3247   1.451       .  S
C3245      N3252   1.157       .  T
C3246      N3251   1.158       .  T
C3247      N3249   1.157       .  T
C3248      N3250   1.158       .  T
C3253      C3254   1.420       .  A
C3253      C3258   1.416       .  A
C3254      C3255   1.412   1_565  A
C3254      C3259   1.453       .  S
C3255      C3256   1.416       .  A
C3255      C3262   1.452       .  S
C3256      C3257   1.412       .  A
C3257      C3258   1.412   1_545  A
C3257      C3260   1.448       .  S
C3258      C3261   1.451       .  S
C3259      N3266   1.157       .  T
C3260      N3265   1.156       .  T
C3261      N3263   1.157       .  T
C3262      N3264   1.157       .  T
C3267      C3268   1.419       .  A
C3267      C3272   1.416       .  A
C3268      C3269   1.425       .  A
C3268      C3273   1.450       .  S
C3269      C3270   1.422       .  A
C3269      C3276   1.449       .  S
C3270      C3271   1.418       .  A
C3271      C3272   1.417       .  A
C3271      C3274   1.446       .  S
C3272      C3275   1.453       .  S
C3273      N3280   1.158       .  T
C3274      N3279   1.155       .  T
C3275      N3277   1.158       .  T
C3276      N3278   1.158       .  T
C3281      C3282   1.421       .  A
C3281      C3286   1.425       .  A
C3282      C3283   1.425   1_556  A
C3282      C3287   1.447       .  S
C3283      C3284   1.418       .  A
C3283      C3290   1.451       .  S
C3284      C3285   1.423       .  A
C3285      C3286   1.419   1_554  A
C3285      C3288   1.455       .  S
C3286      C3289   1.454       .  S
C3287      N3294   1.156       .  T
C3288      N3293   1.158       .  T
C3289      N3291   1.158       .  T
C3290      N3292   1.157       .  T
C3295      C3296   1.418       .  A
C3295      C3300   1.403       .  A
C3296      C3297   1.409       .  A
C3296      C3301   1.450       .  S
C3297      C3298   1.410       .  A
C3297      C3304   1.451       .  S
C3298      C3299   1.423       .  A
C3299      C3300   1.410       .  A
C3299      C3302   1.449       .  S
C3300      C3303   1.450       .  S
C3301      N3308   1.156       .  T
C3302      N3307   1.156       .  T
C3303      N3305   1.157       .  T
C3304      N3306   1.157       .  T
C3309      C3310   1.413       .  A
C3309      C3314   1.405       .  A
C3310      C3311   1.409       .  A
C3310      C3315   1.451       .  S
C3311      C3312   1.416       .  A
C3311      C3318   1.451       .  S
C3312      C3313   1.415       .  A
C3313      C3314   1.406       .  A
C3313      C3316   1.451       .  S
C3314      C3317   1.438       .  S
C3315      N3322   1.157       .  T
C3316      N3321   1.157       .  T
C3317      N3319   1.152       .  T
C3318      N3320   1.157       .  T
C3323      C3324   1.424       .  A
C3323      C3328   1.417       .  A
C3324      C3325   1.418       .  A
C3324      C3329   1.449       .  S
C3325      C3326   1.409       .  A
C3325      C3332   1.452       .  S
C3326      C3327   1.420       .  A
C3327      C3328   1.426       .  A
C3327      C3330   1.448       .  S
C3328      C3331   1.450       .  S
C3329      N3336   1.156       .  T
C3330      N3335   1.157       .  T
C3331      N3333   1.158       .  T
C3332      N3334   1.157       .  T
C3337      C3338   1.426       .  A
C3337      C3342   1.412       .  A
C3338      C3339   1.402       .  A
C3338      C3343   1.454       .  S
C3339      C3340   1.404       .  A
C3339      C3346   1.453       .  S
C3340      C3341   1.416       .  A
C3341      C3342   1.408       .  A
C3341      C3344   1.448       .  S
C3342      C3345   1.453       .  S
C3343      N3350   1.157       .  T
C3344      N3349   1.157       .  T
C3345      N3347   1.158       .  T
C3346      N3348   1.157       .  T
C3351      C3352   1.424       .  A
C3351      C3356   1.418       .  A
C3352      C3353   1.413       .  A
C3352      C3357   1.453       .  S
C3353      C3354   1.418       .  A
C3353      C3360   1.454       .  S
C3354      C3355   1.421       .  A
C3355      C3356   1.424       .  A
C3355      C3358   1.452       .  S
C3356      C3359   1.450       .  S
C3357      N3364   1.157       .  T
C3358      N3363   1.158       .  T
C3359      N3361   1.157       .  T
C3360      N3362   1.157       .  T
C3365      C3366   1.416       .  A
C3365      C3370   1.414       .  A
C3366      C3367   1.410       .  A
C3366      C3371   1.448       .  S
C3367      C3368   1.410       .  A
C3367      C3374   1.450       .  S
C3368      C3369   1.416       .  A
C3369      C3370   1.414       .  A
C3369      C3372   1.452       .  S
C3370      C3373   1.447       .  S
C3371      N3378   1.156       .  T
C3372      N3377   1.157       .  T
C3373      N3375   1.156       .  T
C3374      N3376   1.157       .  T
C3379      C3380   1.425       .  A
C3379      C3384   1.429       .  A
C3380      C3381   1.421       .  A
C3380      C3385   1.451       .  S
C3381      C3382   1.410       .  A
C3381      C3388   1.451       .  S
C3382      C3383   1.407       .  A
C3383      C3384   1.412       .  A
C3383      C3386   1.453       .  S
C3384      C3387   1.452       .  S
C3385      N3392   1.158       .  T
C3386      N3391   1.157       .  T
C3387      N3389   1.157       .  T
C3388      N3390   1.157       .  T
C3393      C3394   1.407       .  A
C3393      C3398   1.409       .  A
C3394      C3395   1.405       .  A
C3394      C3399   1.450       .  S
C3395      C3396   1.416       .  A
C3395      C3402   1.449       .  S
C3396      C3397   1.414       .  A
C3397      C3398   1.409       .  A
C3397      C3400   1.449       .  S
C3398      C3401   1.451       .  S
C3399      N3406   1.157       .  T
C3400      N3405   1.156       .  T
C3401      N3403   1.157       .  T
C3402      N3404   1.156       .  T
C3407      C3408   1.410       .  A
C3407      C3412   1.415       .  A
C3408      C3409   1.416       .  A
C3408      C3413   1.442       .  S
C3409      C3410   1.419       .  A
C3409      C3416   1.448       .  S
C3410      C3411   1.422       .  A
C3411      C3412   1.407       .  A
C3411      C3414   1.454       .  S
C3412      C3415   1.450       .  S
C3413      N3420   1.154       .  T
C3414      N3419   1.158       .  T
C3415      N3417   1.156       .  T
C3416      N3418   1.156       .  T
C3421      C3422   1.412       .  A
C3421      C3426   1.411       .  A
C3422      C3423   1.407       .  A
C3422      C3427   1.451       .  S
C3423      C3424   1.421       .  A
C3423      C3430   1.454       .  S
C3424      C3425   1.425       .  A
C3425      C3426   1.413       .  A
C3425      C3428   1.452       .  S
C3426      C3429   1.451       .  S
C3427      N3434   1.156       .  T
C3428      N3433   1.158       .  T
C3429      N3431   1.157       .  T
C3430      N3432   1.158       .  T
C3435      C3436   1.414       .  A
C3435      C3440   1.410       .  A
C3436      C3437   1.425       .  A
C3436      C3441   1.448       .  S
C3437      C3438   1.416       .  A
C3437      C3444   1.448       .  S
C3438      C3439   1.412       .  A
C3439      C3440   1.402       .  A
C3439      C3442   1.448       .  S
C3440      C3443   1.450       .  S
C3441      N3448   1.157       .  T
C3442      N3447   1.157       .  T
C3443      N3445   1.157       .  T
C3444      N3446   1.157       .  T
C3449      C3450   1.418       .  A
C3449      C3454   1.410       .  A
C3450      C3451   1.409       .  A
C3450      C3455   1.452       .  S
C3451      C3452   1.412       .  A
C3451      C3458   1.453       .  S
C3452      C3453   1.420       .  A
C3453      C3454   1.407       .  A
C3453      C3456   1.450       .  S
C3454      C3457   1.453       .  S
C3455      N3462   1.157       .  T
C3456      N3461   1.156       .  T
C3457      N3459   1.157       .  T
C3458      N3460   1.158       .  T
C3463      C3464   1.415       .  A
C3463      C3468   1.413       .  A
C3464      C3465   1.412       .  A
C3464      C3469   1.449       .  S
C3465      C3466   1.420       .  A
C3465      C3472   1.453       .  S
C3466      C3467   1.419       .  A
C3467      C3468   1.409       .  A
C3467      C3470   1.443       .  S
C3468      C3471   1.453       .  S
C3469      N3476   1.156       .  T
C3470      N3475   1.154       .  T
C3471      N3473   1.158       .  T
C3472      N3474   1.157       .  T
C3477      C3478   1.418       .  A
C3477      C3482   1.419       .  A
C3478      C3479   1.416       .  A
C3478      C3483   1.453       .  S
C3479      C3480   1.417       .  A
C3479      C3486   1.448       .  S
C3480      C3481   1.417       .  A
C3481      C3482   1.433       .  A
C3481      C3484   1.442       .  S
C3482      C3485   1.445       .  S
C3483      N3490   1.157       .  T
C3484      N3489   1.156       .  T
C3485      N3487   1.156       .  T
C3486      N3488   1.156       .  T
C3491      C3492   1.421       .  A
C3491      C3496   1.433       .  A
C3492      C3493   1.421       .  A
C3492      C3497   1.451       .  S
C3493      C3494   1.414       .  A
C3493      C3500   1.450       .  S
C3494      C3495   1.402       .  A
C3495      C3496   1.408       .  A
C3495      C3498   1.454       .  S
C3496      C3499   1.454       .  S
C3497      N3504   1.158       .  T
C3498      N3503   1.156       .  T
C3499      N3501   1.157       .  T
C3500      N3502   1.157       .  T
C3505      C3506   1.429       .  A
C3505      C3510   1.406       .  A
C3506      C3507   1.414   1_556  A
C3506      C3511   1.452       .  S
C3507      C3508   1.406       .  A
C3507      C3514   1.452       .  S
C3508      C3509   1.419       .  A
C3509      C3510   1.408   1_554  A
C3509      C3512   1.446       .  S
C3510      C3513   1.454       .  S
C3511      N3518   1.157       .  T
C3512      N3517   1.158       .  T
C3513      N3515   1.158       .  T
C3514      N3516   1.157       .  T
C3519      C3520   1.411       .  A
C3519      C3524   1.428       .  A
C3520      C3521   1.421   1_655  A
C3520      C3525   1.455       .  S
C3521      C3522   1.426       .  A
C3521      C3528   1.443       .  S
C3522      C3523   1.412       .  A
C3523      C3524   1.425   1_455  A
C3523      C3526   1.448       .  S
C3524      C3527   1.451       .  S
C3525      N3532   1.158       .  T
C3526      N3531   1.156       .  T
C3527      N3529   1.158       .  T
C3528      N3530   1.156       .  T
C3533      C3534   1.430       .  A
C3533      C3538   1.418       .  A
C3534      C3535   1.424   1_556  A
C3534      C3539   1.449       .  S
C3535      C3536   1.410       .  A
C3535      C3542   1.452       .  S
C3536      C3537   1.418       .  A
C3537      C3538   1.420   1_554  A
C3537      C3540   1.447       .  S
C3538      C3541   1.450       .  S
C3539      N3546   1.157       .  T
C3540      N3545   1.156       .  T
C3541      N3543   1.158       .  T
C3542      N3544   1.157       .  T
C3547      C3548   1.414       .  A
C3547      C3552   1.415       .  A
C3548      C3549   1.407   1_565  A
C3548      C3553   1.452       .  S
C3549      C3550   1.416       .  A
C3549      C3556   1.450       .  S
C3550      C3551   1.410       .  A
C3551      C3552   1.406   1_545  A
C3551      C3554   1.449       .  S
C3552      C3555   1.449       .  S
C3553      N3560   1.157       .  T
C3554      N3559   1.156       .  T
C3555      N3557   1.156       .  T
C3556      N3558   1.158       .  T
C3561      C3562   1.411       .  A
C3561      C3566   1.420       .  A
C3562      C3563   1.411       .  A
C3562      C3567   1.453       .  S
C3563      C3564   1.422       .  A
C3563      C3570   1.448       .  S
C3564      C3565   1.417       .  A
C3565      C3566   1.425       .  A
C3565      C3568   1.450       .  S
C3566      C3569   1.450       .  S
C3567      N3574   1.157       .  T
C3568      N3573   1.157       .  T
C3569      N3571   1.157       .  T
C3570      N3572   1.155       .  T
C3575      C3576   1.419       .  A
C3575      C3580   1.411       .  A
C3576      C3577   1.422   1_655  A
C3576      C3581   1.451       .  S
C3577      C3578   1.414       .  A
C3577      C3584   1.446       .  S
C3578      C3579   1.418       .  A
C3579      C3580   1.413   1_455  A
C3579      C3582   1.446       .  S
C3580      C3583   1.452       .  S
C3581      N3588   1.157       .  T
C3582      N3587   1.156       .  T
C3583      N3585   1.157       .  T
C3584      N3586   1.156       .  T
C3589      C3590   1.413       .  A
C3589      C3594   1.422       .  A
C3590      C3591   1.407   1_565  A
C3590      C3595   1.449       .  S
C3591      C3592   1.404       .  A
C3591      C3598   1.443       .  S
C3592      C3593   1.415       .  A
C3593      C3594   1.415   1_545  A
C3593      C3596   1.452       .  S
C3594      C3597   1.451       .  S
C3595      N3602   1.157       .  T
C3596      N3601   1.157       .  T
C3597      N3599   1.158       .  T
C3598      N3600   1.156       .  T
C3603      C3604   1.416       .  A
C3603      C3608   1.418       .  A
C3604      C3605   1.427       .  A
C3604      C3609   1.448       .  S
C3605      C3606   1.419       .  A
C3605      C3612   1.448       .  S
C3606      C3607   1.406       .  A
C3607      C3608   1.408       .  A
C3607      C3610   1.453       .  S
C3608      C3611   1.445       .  S
C3609      N3616   1.157       .  T
C3610      N3615   1.156       .  T
C3611      N3613   1.157       .  T
C3612      N3614   1.157   1_545  T
C3617      C3618   1.414       .  A
C3617      C3622   1.411       .  A
C3618      C3619   1.425       .  A
C3618      C3623   1.445       .  S
C3619      C3620   1.415       .  A
C3619      C3626   1.446       .  S
C3620      C3621   1.416       .  A
C3621      C3622   1.408       .  A
C3621      C3624   1.454       .  S
C3622      C3625   1.449       .  S
C3623      N3630   1.156       .  T
C3624      N3629   1.158       .  T
C3625      N3627   1.157       .  T
C3626      N3628   1.157       .  T
C3631      C3632   1.428       .  A
C3631      C3636   1.423       .  A
C3632      C3633   1.431       .  A
C3632      C3637   1.449       .  S
C3633      C3634   1.421       .  A
C3633      C3640   1.451       .  S
C3634      C3635   1.421       .  A
C3635      C3636   1.418       .  A
C3635      C3638   1.454       .  S
C3636      C3639   1.450       .  S
C3637      N3644   1.158       .  T
C3638      N3643   1.158       .  T
C3639      N3641   1.156       .  T
C3640      N3642   1.157       .  T
C3645      C3646   1.414       .  A
C3645      C3650   1.414       .  A
C3646      C3647   1.410       .  A
C3646      C3651   1.448       .  S
C3647      C3648   1.415       .  A
C3647      C3654   1.450       .  S
C3648      C3649   1.421       .  A
C3649      C3650   1.424       .  A
C3649      C3652   1.449       .  S
C3650      C3653   1.449       .  S
C3651      N3658   1.156       .  T
C3652      N3657   1.157       .  T
C3653      N3655   1.157       .  T
C3654      N3656   1.157       .  T
C3659      C3660   1.420       .  A
C3659      C3664   1.406       .  A
C3660      C3661   1.422       .  A
C3660      C3665   1.450       .  S
C3661      C3662   1.416       .  A
C3661      C3668   1.451       .  S
C3662      C3663   1.428       .  A
C3663      C3664   1.412       .  A
C3663      C3666   1.451       .  S
C3664      C3667   1.453       .  S
C3665      N3672   1.157       .  T
C3666      N3671   1.157       .  T
C3667      N3669   1.157       .  T
C3668      N3670   1.157       .  T
C3673      C3674   1.424       .  A
C3673      C3678   1.423       .  A
C3674      C3675   1.406       .  A
C3674      C3679   1.452       .  S
C3675      C3676   1.409       .  A
C3675      C3682   1.452       .  S
C3676      C3677   1.408       .  A
C3677      C3678   1.421       .  A
C3677      C3680   1.449       .  S
C3678      C3681   1.446       .  S
C3679      N3686   1.156       .  T
C3680      N3685   1.157       .  T
C3681      N3683   1.156       .  T
C3682      N3684   1.156       .  T
C3687      C3688   1.400       .  A
C3687      C3692   1.415       .  A
C3688      C3689   1.399       .  A
C3688      C3693   1.445       .  S
C3689      C3690   1.424       .  A
C3689      C3696   1.448       .  S
C3690      C3691   1.425       .  A
C3691      C3692   1.429       .  A
C3691      C3694   1.444       .  S
C3692      C3695   1.448       .  S
C3693      N3700   1.156       .  T
C3694      N3699   1.157       .  T
C3695      N3697   1.157       .  T
C3696      N3698   1.157       .  T
C3701      C3702   1.420       .  A
C3701      C3706   1.410       .  A
C3702      C3703   1.420       .  A
C3702      C3707   1.444       .  S
C3703      C3704   1.413       .  A
C3703      C3710   1.448       .  S
C3704      C3705   1.402       .  A
C3705      C3706   1.404       .  A
C3705      C3708   1.439       .  S
C3706      C3709   1.443       .  S
C3707      N3714   1.156       .  T
C3708      N3713   1.157       .  T
C3709      N3711   1.156       .  T
C3710      N3712   1.157       .  T
C3715      C3716   1.419       .  A
C3715      C3720   1.414       .  A
C3716      C3717   1.411       .  A
C3716      C3721   1.454       .  S
C3717      C3718   1.420       .  A
C3717      C3724   1.453       .  S
C3718      C3719   1.424       .  A
C3719      C3720   1.410       .  A
C3719      C3722   1.453       .  S
C3720      C3723   1.454       .  S
C3721      N3728   1.158       .  T
C3722      N3727   1.157       .  T
C3723      N3725   1.157       .  T
C3724      N3726   1.158       .  T
C3729      C3730   1.409       .  A
C3729      C3734   1.410       .  A
C3730      C3731   1.408       .  A
C3730      C3735   1.452       .  S
C3731      C3732   1.419       .  A
C3731      C3738   1.449       .  S
C3732      C3733   1.418       .  A
C3733      C3734   1.405       .  A
C3733      C3736   1.453       .  S
C3734      C3737   1.452       .  S
C3735      N3742   1.157       .  T
C3736      N3741   1.157       .  T
C3737      N3739   1.157       .  T
C3738      N3740   1.157       .  T
C3743      C3744   1.413       .  A
C3743      C3748   1.405       .  A
C3744      C3745   1.412       .  A
C3744      C3749   1.449       .  S
C3745      C3746   1.410       .  A
C3745      C3752   1.448       .  S
C3746      C3747   1.405       .  A
C3747      C3748   1.400       .  A
C3747      C3750   1.442       .  S
C3748      C3751   1.450       .  S
C3749      N3756   1.157       .  T
C3750      N3755   1.154       .  T
C3751      N3753   1.156       .  T
C3752      N3754   1.156       .  T
C3757      C3758   1.409       .  A
C3757      C3762   1.409       .  A
C3758      C3759   1.404       .  A
C3758      C3763   1.456       .  S
C3759      C3760   1.419       .  A
C3759      C3766   1.449       .  S
C3760      C3761   1.421       .  A
C3761      C3762   1.414       .  A
C3761      C3764   1.451       .  S
C3762      C3765   1.449       .  S
C3763      N3770   1.157       .  T
C3764      N3769   1.158       .  T
C3765      N3767   1.157       .  T
C3766      N3768   1.156       .  T
C3771      C3772   1.421       .  A
C3771      C3776   1.424       .  A
C3772      C3773   1.407       .  A
C3772      C3777   1.452       .  S
C3773      C3774   1.405       .  A
C3773      C3780   1.447       .  S
C3774      C3775   1.407       .  A
C3775      C3776   1.413       .  A
C3775      C3778   1.448       .  S
C3776      C3779   1.450       .  S
C3777      N3784   1.157       .  T
C3778      N3783   1.157       .  T
C3779      N3781   1.157       .  T
C3780      N3782   1.155       .  T
C3785      C3786   1.421       .  A
C3785      C3790   1.417       .  A
C3786      C3787   1.412       .  A
C3786      C3791   1.445       .  S
C3787      C3788   1.410       .  A
C3787      C3794   1.455       .  S
C3788      C3789   1.419       .  A
C3789      C3790   1.413       .  A
C3789      C3792   1.453       .  S
C3790      C3793   1.452       .  S
C3791      N3798   1.156       .  T
C3792      N3797   1.158       .  T
C3793      N3795   1.157       .  T
C3794      N3796   1.157       .  T
C3799      C3800   1.427       .  A
C3799      C3804   1.420       .  A
C3800      C3801   1.431       .  A
C3800      C3805   1.447       .  S
C3801      C3802   1.415       .  A
C3801      C3808   1.449       .  S
C3802      C3803   1.417       .  A
C3803      C3804   1.410       .  A
C3803      C3806   1.447       .  S
C3804      C3807   1.452       .  S
C3805      N3812   1.157       .  T
C3806      N3811   1.156       .  T
C3807      N3809   1.157       .  T
C3808      N3810   1.157       .  T
C3813      C3814   1.418       .  A
C3813      C3818   1.421       .  A
C3814      C3815   1.412       .  A
C3814      C3819   1.450       .  S
C3815      C3816   1.418       .  A
C3815      C3822   1.450       .  S
C3816      C3817   1.423       .  A
C3817      C3818   1.414       .  A
C3817      C3820   1.452       .  S
C3818      C3821   1.454       .  S
C3819      N3826   1.157       .  T
C3820      N3825   1.158       .  T
C3821      N3823   1.157       .  T
C3822      N3824   1.157       .  T
C3827      C3828   1.407       .  A
C3827      C3832   1.408       .  A
C3828      C3829   1.400       .  A
C3828      C3833   1.443       .  S
C3829      C3830   1.405       .  A
C3829      C3836   1.445       .  S
C3830      C3831   1.415       .  A
C3831      C3832   1.409       .  A
C3831      C3834   1.445       .  S
C3832      C3835   1.451       .  S
C3833      N3840   1.157       .  T
C3834      N3839   1.156       .  T
C3835      N3837   1.157       .  T
C3836      N3838   1.156       .  T
C3841      C3842   1.418       .  A
C3841      C3846   1.400       .  A
C3842      C3843   1.416       .  A
C3842      C3847   1.448       .  S
C3843      C3844   1.416       .  A
C3843      C3850   1.449       .  S
C3844      C3845   1.417       .  A
C3845      C3846   1.401       .  A
C3845      C3848   1.446       .  S
C3846      C3849   1.444       .  S
C3847      N3854   1.157       .  T
C3848      N3853   1.156       .  T
C3849      N3851   1.156       .  T
C3850      N3852   1.156       .  T
C3855      C3856   1.411       .  A
C3855      C3860   1.418       .  A
C3856      C3857   1.418       .  A
C3856      C3861   1.452       .  S
C3857      C3858   1.429       .  A
C3857      C3864   1.452       .  S
C3858      C3859   1.420       .  A
C3859      C3860   1.416       .  A
C3859      C3862   1.453       .  S
C3860      C3863   1.452       .  S
C3861      N3868   1.157       .  T
C3862      N3867   1.158       .  T
C3863      N3865   1.157       .  T
C3864      N3866   1.158       .  T
C3869      C3870   1.409       .  A
C3869      C3874   1.416       .  A
C3870      C3871   1.414       .  A
C3870      C3875   1.446       .  S
C3871      C3872   1.430       .  A
C3871      C3878   1.456       .  S
C3872      C3873   1.423       .  A
C3873      C3874   1.427       .  A
C3873      C3876   1.448       .  S
C3874      C3877   1.449       .  S
C3875      N3882   1.155       .  T
C3876      N3881   1.157       .  T
C3877      N3879   1.157       .  T
C3878      N3880   1.158       .  T
C3883      C3884   1.420       .  A
C3883      C3888   1.409       .  A
C3884      C3885   1.414       .  A
C3884      C3889   1.448       .  S
C3885      C3886   1.409       .  A
C3885      C3892   1.449       .  S
C3886      C3887   1.413       .  A
C3887      C3888   1.413       .  A
C3887      C3890   1.446       .  S
C3888      C3891   1.450       .  S
C3889      N3896   1.157       .  T
C3890      N3895   1.157       .  T
C3891      N3893   1.157       .  T
C3892      N3894   1.157       .  T
C3897      C3898   1.426       .  A
C3897      C3902   1.411       .  A
C3898      C3899   1.412       .  A
C3898      C3903   1.454       .  S
C3899      C3900   1.411       .  A
C3899      C3906   1.450       .  S
C3900      C3901   1.426       .  A
C3901      C3902   1.426       .  A
C3901      C3904   1.445       .  S
C3902      C3905   1.451       .  S
C3903      N3910   1.157       .  T
C3904      N3909   1.156       .  T
C3905      N3907   1.157       .  T
C3906      N3908   1.156       .  T
C3911      C3912   1.406       .  A
C3911      C3916   1.400       .  A
C3912      C3913   1.409       .  A
C3912      C3917   1.445       .  S
C3913      C3914   1.409       .  A
C3913      C3920   1.443       .  S
C3914      C3915   1.425       .  A
C3915      C3916   1.411       .  A
C3915      C3918   1.441       .  S
C3916      C3919   1.454       .  S
C3917      N3924   1.156   1_556  T
C3918      N3923   1.155       .  T
C3919      N3921   1.157       .  T
C3920      N3922   1.155       .  T
C3925      C3926   1.410       .  A
C3925      C3930   1.420       .  A
C3926      C3927   1.421       .  A
C3926      C3931   1.450       .  S
C3927      C3928   1.430       .  A
C3927      C3934   1.452       .  S
C3928      C3929   1.411       .  A
C3929      C3930   1.416       .  A
C3929      C3932   1.452       .  S
C3930      C3933   1.444       .  S
C3931      N3938   1.157       .  T
C3932      N3937   1.157       .  T
C3933      N3935   1.157       .  T
C3934      N3936   1.158       .  T
C3939      C3940   1.414       .  A
C3939      C3944   1.424       .  A
C3940      C3941   1.435       .  A
C3940      C3945   1.448       .  S
C3941      C3942   1.428       .  A
C3941      C3948   1.444       .  S
C3942      C3943   1.419       .  A
C3943      C3944   1.414       .  A
C3943      C3946   1.454       .  S
C3944      C3947   1.455       .  S
C3945      N3952   1.157       .  T
C3946      N3951   1.157       .  T
C3947      N3949   1.158       .  T
C3948      N3950   1.156       .  T
C3953      C3954   1.422       .  A
C3953      C3958   1.425       .  A
C3954      C3955   1.419       .  A
C3954      C3959   1.450       .  S
C3955      C3956   1.417       .  A
C3955      C3962   1.451       .  S
C3956      C3957   1.414       .  A
C3957      C3958   1.408       .  A
C3957      C3960   1.451       .  S
C3958      C3961   1.453       .  S
C3959      N3966   1.157       .  T
C3960      N3965   1.156       .  T
C3961      N3963   1.157       .  T
C3962      N3964   1.157       .  T
C3967      C3968   1.408       .  A
C3967      C3972   1.416       .  A
C3968      C3969   1.406       .  A
C3968      C3973   1.455       .  S
C3969      C3970   1.423       .  A
C3969      C3976   1.452       .  S
C3970      C3971   1.414       .  A
C3971      C3972   1.421       .  A
C3971      C3974   1.449       .  S
C3972      C3975   1.449       .  S
C3973      N3980   1.157       .  T
C3974      N3979   1.157       .  T
C3975      N3977   1.157       .  T
C3976      N3978   1.156       .  T
C3981      C3982   1.404       .  A
C3981      C3986   1.420       .  A
C3982      C3983   1.411       .  A
C3982      C3987   1.443       .  S
C3983      C3984   1.414       .  A
C3983      C3990   1.443       .  S
C3984      C3985   1.411       .  A
C3985      C3986   1.416       .  A
C3985      C3988   1.454       .  S
C3986      C3989   1.443       .  S
C3987      N3994   1.157       .  T
C3988      N3993   1.157       .  T
C3989      N3991   1.156       .  T
C3990      N3992   1.156       .  T
C3995      C3996   1.417       .  A
C3995      C4000   1.422       .  A
C3996      C3997   1.416       .  A
C3996      C4001   1.452       .  S
C3997      C3998   1.419       .  A
C3997      C4004   1.449       .  S
C3998      C3999   1.418       .  A
C3999      C4000   1.412       .  A
C3999      C4002   1.454       .  S
C4000      C4003   1.454       .  S
C4001      N4008   1.157       .  T
C4002      N4007   1.158       .  T
C4003      N4005   1.157       .  T
C4004      N4006   1.156       .  T
C4009      C4010   1.409       .  A
C4009      C4014   1.410       .  A
C4010      C4011   1.403       .  A
C4010      C4015   1.448       .  S
C4011      C4012   1.410       .  A
C4011      C4018   1.443       .  S
C4012      C4013   1.429       .  A
C4013      C4014   1.425       .  A
C4013      C4016   1.449       .  S
C4014      C4017   1.448       .  S
C4015      N4022   1.157       .  T
C4016      N4021   1.157       .  T
C4017      N4019   1.157       .  T
C4018      N4020   1.155       .  T
C4023      C4024   1.424       .  A
C4023      C4028   1.418       .  A
C4024      C4025   1.411       .  A
C4024      C4029   1.451       .  S
C4025      C4026   1.411       .  A
C4025      C4032   1.453       .  S
C4026      C4027   1.407       .  A
C4027      C4028   1.418       .  A
C4027      C4030   1.446       .  S
C4028      C4031   1.444       .  S
C4029      N4036   1.157       .  T
C4030      N4035   1.157   1_655  T
C4031      N4033   1.155       .  T
C4032      N4034   1.157       .  T
C4037      C4038   1.415       .  A
C4037      C4042   1.419       .  A
C4038      C4039   1.413       .  A
C4038      C4043   1.446       .  S
C4039      C4040   1.411       .  A
C4039      C4046   1.449       .  S
C4040      C4041   1.418       .  A
C4041      C4042   1.429       .  A
C4041      C4044   1.449       .  S
C4042      C4045   1.448       .  S
C4043      N4050   1.157       .  T
C4044      N4049   1.157       .  T
C4045      N4047   1.157       .  T
C4046      N4048   1.157       .  T
C4051      C4052   1.417       .  A
C4051      C4056   1.428       .  A
C4052      C4053   1.417       .  A
C4052      C4057   1.450       .  S
C4053      C4054   1.413       .  A
C4053      C4060   1.444       .  S
C4054      C4055   1.404       .  A
C4055      C4056   1.397       .  A
C4055      C4058   1.456       .  S
C4056      C4059   1.452       .  S
C4057      N4064   1.157       .  T
C4058      N4063   1.157       .  T
C4059      N4061   1.157       .  T
C4060      N4062   1.156       .  T
C4065      C4066   1.423       .  A
C4065      C4070   1.422       .  A
C4066      C4067   1.414       .  A
C4066      C4071   1.445       .  S
C4067      C4068   1.410       .  A
C4067      C4074   1.452       .  S
C4068      C4069   1.412       .  A
C4069      C4070   1.410       .  A
C4069      C4072   1.452       .  S
C4070      C4073   1.452       .  S
C4071      N4078   1.155       .  T
C4072      N4077   1.157       .  T
C4073      N4075   1.158       .  T
C4074      N4076   1.158       .  T
C4079      C4080   1.423       .  A
C4079      C4084   1.413       .  A
C4080      C4081   1.420       .  A
C4080      C4085   1.439       .  S
C4081      C4082   1.405       .  A
C4081      C4088   1.448       .  S
C4082      C4083   1.408       .  A
C4083      C4084   1.420       .  A
C4083      C4086   1.440       .  S
C4084      C4087   1.440       .  S
C4085      N4092   1.154       .  T
C4086      N4091   1.156   1_455  T
C4087      N4089   1.154       .  T
C4088      N4090   1.156       .  T
C4093      C4094   1.410       .  A
C4093      C4098   1.414       .  A
C4094      C4095   1.410       .  A
C4094      C4099   1.449       .  S
C4095      C4096   1.409       .  A
C4095      C4102   1.438       .  S
C4096      C4097   1.418       .  A
C4097      C4098   1.424       .  A
C4097      C4100   1.448       .  S
C4098      C4101   1.447       .  S
C4099      N4106   1.156       .  T
C4100      N4105   1.157       .  T
C4101      N4103   1.156       .  T
C4102      N4104   1.151       .  T
C4107      C4108   1.410       .  A
C4107      C4112   1.413       .  A
C4108      C4109   1.426       .  A
C4108      C4113   1.445       .  S
C4109      C4110   1.417       .  A
C4109      C4116   1.439       .  S
C4110      C4111   1.427       .  A
C4111      C4112   1.422       .  A
C4111      C4114   1.450       .  S
C4112      C4115   1.450       .  S
C4113      N4120   1.157   1_655  T
C4114      N4119   1.157       .  T
C4115      N4117   1.157       .  T
C4116      N4118   1.153       .  T
C4121      C4122   1.408       .  A
C4121      C4126   1.417       .  A
C4122      C4123   1.412       .  A
C4122      C4127   1.447       .  S
C4123      C4124   1.421       .  A
C4123      C4130   1.450       .  S
C4124      C4125   1.415       .  A
C4125      C4126   1.419       .  A
C4125      C4128   1.448       .  S
C4126      C4129   1.450       .  S
C4127      N4134   1.156       .  T
C4128      N4133   1.157       .  T
C4129      N4131   1.157       .  T
C4130      N4132   1.157       .  T
C4135      C4136   1.424       .  A
C4135      C4140   1.430       .  A
C4136      C4137   1.432       .  A
C4136      C4141   1.449       .  S
C4137      C4138   1.419       .  A
C4137      C4144   1.448       .  S
C4138      C4139   1.412       .  A
C4139      C4140   1.416       .  A
C4139      C4142   1.454       .  S
C4140      C4143   1.451       .  S
C4141      N4148   1.158       .  T
C4142      N4147   1.157       .  T
C4143      N4145   1.157       .  T
C4144      N4146   1.157       .  T
C4149      C4150   1.416       .  A
C4149      C4154   1.418       .  A
C4150      C4151   1.428       .  A
C4150      C4155   1.442       .  S
C4151      C4152   1.414       .  A
C4151      C4158   1.446       .  S
C4152      C4153   1.406       .  A
C4153      C4154   1.411       .  A
C4153      C4156   1.450       .  S
C4154      C4157   1.442       .  S
C4155      N4162   1.155       .  T
C4156      N4161   1.156       .  T
C4157      N4159   1.156       .  T
C4158      N4160   1.157       .  T
C4163      C4164   1.418       .  A
C4163      C4168   1.421       .  A
C4164      C4165   1.414       .  A
C4164      C4169   1.446       .  S
C4165      C4166   1.415       .  A
C4165      C4172   1.452       .  S
C4166      C4167   1.416       .  A
C4167      C4168   1.417       .  A
C4167      C4170   1.454       .  S
C4168      C4171   1.446       .  S
C4169      N4176   1.155       .  T
C4170      N4175   1.158       .  T
C4171      N4173   1.156       .  T
C4172      N4174   1.157   1_455  T
C4177      C4178   1.417       .  A
C4177      C4182   1.421       .  A
C4178      C4179   1.431       .  A
C4178      C4183   1.450       .  S
C4179      C4180   1.433       .  A
C4179      C4186   1.451       .  S
C4180      C4181   1.424       .  A
C4181      C4182   1.424       .  A
C4181      C4184   1.445       .  S
C4182      C4185   1.451       .  S
C4183      N4190   1.157       .  T
C4184      N4189   1.155       .  T
C4185      N4187   1.157       .  T
C4186      N4188   1.158       .  T
C4191      C4192   1.406       .  A
C4191      C4196   1.406       .  A
C4192      C4193   1.411       .  A
C4192      C4197   1.445       .  S
C4193      C4194   1.413       .  A
C4193      C4200   1.445       .  S
C4194      C4195   1.419       .  A
C4195      C4196   1.404       .  A
C4195      C4198   1.450       .  S
C4196      C4199   1.450       .  S
C4197      N4204   1.156   1_455  T
C4198      N4203   1.156       .  T
C4199      N4201   1.156       .  T
C4200      N4202   1.155       .  T
C4205      C4206   1.410       .  A
C4205      C4210   1.418       .  A
C4206      C4207   1.413       .  A
C4206      C4211   1.451       .  S
C4207      C4208   1.423       .  A
C4207      C4214   1.449       .  S
C4208      C4209   1.416       .  A
C4209      C4210   1.412       .  A
C4209      C4212   1.451       .  S
C4210      C4213   1.449       .  S
C4211      N4218   1.157       .  T
C4212      N4217   1.157       .  T
C4213      N4215   1.157       .  T
C4214      N4216   1.157       .  T
C4219      C4220   1.423       .  A
C4219      C4224   1.422       .  A
C4220      C4221   1.425       .  A
C4220      C4225   1.440       .  S
C4221      C4222   1.413       .  A
C4221      C4228   1.452       .  S
C4222      C4223   1.422       .  A
C4223      C4224   1.429       .  A
C4223      C4226   1.450       .  S
C4224      C4227   1.448       .  S
C4225      N4232   1.152       .  T
C4226      N4231   1.157       .  T
C4227      N4229   1.157       .  T
C4228      N4230   1.157   1_556  T
C4233      C4234   1.414       .  A
C4233      C4238   1.402       .  A
C4234      C4235   1.429       .  A
C4234      C4239   1.448       .  S
C4235      C4236   1.426       .  A
C4235      C4242   1.445       .  S
C4236      C4237   1.426       .  A
C4237      C4238   1.404       .  A
C4237      C4240   1.451       .  S
C4238      C4241   1.443       .  S
C4239      N4246   1.157       .  T
C4240      N4245   1.157       .  T
C4241      N4243   1.154       .  T
C4242      N4244   1.156       .  T
C4247      C4248   1.400       .  A
C4247      C4252   1.406       .  A
C4248      C4249   1.403       .  A
C4248      C4253   1.452       .  S
C4249      C4250   1.428       .  A
C4249      C4256   1.455       .  S
C4250      C4251   1.414       .  A
C4251      C4252   1.414       .  A
C4251      C4254   1.449       .  S
C4252      C4255   1.444       .  S
C4253      N4260   1.157       .  T
C4254      N4259   1.157       .  T
C4255      N4257   1.157   1_556  T
C4256      N4258   1.158       .  T
C4261      C4262   1.417       .  A
C4261      C4266   1.413       .  A
C4262      C4263   1.407       .  A
C4262      C4267   1.454       .  S
C4263      C4264   1.412       .  A
C4263      C4270   1.449       .  S
C4264      C4265   1.417       .  A
C4265      C4266   1.415       .  A
C4265      C4268   1.452       .  S
C4266      C4269   1.449       .  S
C4267      N4274   1.157       .  T
C4268      N4273   1.157       .  T
C4269      N4271   1.157       .  T
C4270      N4272   1.156       .  T
C4275      C4276   1.408       .  A
C4275      C4280   1.413       .  A
C4276      C4277   1.413       .  A
C4276      C4281   1.449       .  S
C4277      C4278   1.411       .  A
C4277      C4284   1.445       .  S
C4278      C4279   1.407       .  A
C4279      C4280   1.401       .  A
C4279      C4282   1.450       .  S
C4280      C4283   1.451       .  S
C4281      N4288   1.157       .  T
C4282      N4287   1.156       .  T
C4283      N4285   1.157       .  T
C4284      N4286   1.157   1_554  T
C4289      C4290   1.424       .  A
C4289      C4294   1.415       .  A
C4290      C4291   1.438       .  A
C4290      C4295   1.448       .  S
C4291      C4292   1.425       .  A
C4291      C4298   1.447       .  S
C4292      C4293   1.430       .  A
C4293      C4294   1.411       .  A
C4293      C4296   1.455       .  S
C4294      C4297   1.451       .  S
C4295      N4302   1.157       .  T
C4296      N4301   1.157       .  T
C4297      N4299   1.155       .  T
C4298      N4300   1.157       .  T
C4303      C4304   1.414       .  A
C4303      C4308   1.419       .  A
C4304      C4305   1.413       .  A
C4304      C4309   1.453       .  S
C4305      C4306   1.419       .  A
C4305      C4312   1.449       .  S
C4306      C4307   1.416       .  A
C4307      C4308   1.414       .  A
C4307      C4310   1.450       .  S
C4308      C4311   1.453       .  S
C4309      N4316   1.157       .  T
C4310      N4315   1.157       .  T
C4311      N4313   1.158       .  T
C4312      N4314   1.156       .  T
C4317      C4318   1.419       .  A
C4317      C4322   1.431       .  A
C4318      C4319   1.423       .  A
C4318      C4323   1.447       .  S
C4319      C4320   1.418       .  A
C4319      C4326   1.451       .  S
C4320      C4321   1.406       .  A
C4321      C4322   1.415       .  A
C4321      C4324   1.454       .  S
C4322      C4325   1.446       .  S
C4323      N4330   1.157       .  T
C4324      N4329   1.157       .  T
C4325      N4327   1.156       .  T
C4326      N4328   1.157       .  T
C4331      C4332   1.412       .  A
C4331      C4336   1.410       .  A
C4332      C4333   1.421       .  A
C4332      C4337   1.448       .  S
C4333      C4334   1.427       .  A
C4333      C4340   1.452       .  S
C4334      C4335   1.423       .  A
C4335      C4336   1.413       .  A
C4335      C4338   1.444       .  S
C4336      C4339   1.450       .  S
C4337      N4344   1.156       .  T
C4338      N4343   1.155       .  T
C4339      N4341   1.157       .  T
C4340      N4342   1.158       .  T
C4345      C4346   1.421       .  A
C4345      C4350   1.417       .  A
C4346      C4347   1.430       .  A
C4346      C4351   1.449       .  S
C4347      C4348   1.421       .  A
C4347      C4354   1.448       .  S
C4348      C4349   1.429       .  A
C4349      C4350   1.412       .  A
C4349      C4352   1.454       .  S
C4350      C4353   1.453       .  S
C4351      N4358   1.157       .  T
C4352      N4357   1.157       .  T
C4353      N4355   1.156       .  T
C4354      N4356   1.157       .  T
C4359      C4360   1.420       .  A
C4359      C4364   1.415       .  A
C4360      C4361   1.411       .  A
C4360      C4365   1.451       .  S
C4361      C4362   1.415       .  A
C4361      C4368   1.450       .  S
C4362      C4363   1.420       .  A
C4363      C4364   1.422       .  A
C4363      C4366   1.447       .  S
C4364      C4367   1.450       .  S
C4365      N4372   1.156   1_565  T
C4366      N4371   1.157       .  T
C4367      N4369   1.157       .  T
C4368      N4370   1.155       .  T
C4373      C4374   1.413       .  A
C4373      C4378   1.423       .  A
C4374      C4375   1.415       .  A
C4374      C4379   1.454       .  S
C4375      C4376   1.423       .  A
C4375      C4382   1.447       .  S
C4376      C4377   1.417       .  A
C4377      C4378   1.428       .  A
C4377      C4380   1.449       .  S
C4378      C4381   1.449       .  S
C4379      N4386   1.158       .  T
C4380      N4385   1.157       .  T
C4381      N4383   1.157       .  T
C4382      N4384   1.156       .  T
C4387      C4388   1.416       .  A
C4387      C4392   1.412       .  A
C4388      C4389   1.419       .  A
C4388      C4393   1.449       .  S
C4389      C4390   1.420       .  A
C4389      C4396   1.451       .  S
C4390      C4391   1.426       .  A
C4391      C4392   1.418       .  A
C4391      C4394   1.452       .  S
C4392      C4395   1.450       .  S
C4393      N4400   1.157       .  T
C4394      N4399   1.158       .  T
C4395      N4397   1.157       .  T
C4396      N4398   1.157   1_545  T
C4401      C4402   1.407       .  A
C4401      C4406   1.410       .  A
C4402      C4403   1.407       .  A
C4402      C4407   1.447       .  S
C4403      C4404   1.423       .  A
C4403      C4410   1.452       .  S
C4404      C4405   1.420       .  A
C4405      C4406   1.417       .  A
C4405      C4408   1.448       .  S
C4406      C4409   1.449       .  S
C4407      N4414   1.156       .  T
C4408      N4413   1.157       .  T
C4409      N4411   1.157       .  T
C4410      N4412   1.157       .  T
C4415      C4416   1.409       .  A
C4415      C4420   1.412       .  A
C4416      C4417   1.416       .  A
C4416      C4421   1.447       .  S
C4417      C4418   1.415       .  A
C4417      C4424   1.446       .  S
C4418      C4419   1.415       .  A
C4419      C4420   1.424       .  A
C4419      C4422   1.438       .  S
C4420      C4423   1.448       .  S
C4421      N4428   1.156       .  T
C4422      N4427   1.154       .  T
C4423      N4425   1.157   1_545  T
C4424      N4426   1.156       .  T
C4429      C4430   1.416       .  A
C4429      C4434   1.424       .  A
C4430      C4431   1.396       .  A
C4430      C4435   1.453       .  S
C4431      C4432   1.405       .  A
C4431      C4438   1.446       .  S
C4432      C4433   1.406       .  A
C4433      C4434   1.412       .  A
C4433      C4436   1.448       .  S
C4434      C4437   1.451       .  S
C4435      N4442   1.158       .  T
C4436      N4441   1.157       .  T
C4437      N4439   1.157       .  T
C4438      N4440   1.156       .  T
C4443      C4444   1.414       .  A
C4443      C4448   1.420       .  A
C4444      C4445   1.405       .  A
C4444      C4449   1.456       .  S
C4445      C4446   1.418       .  A
C4445      C4452   1.447       .  S
C4446      C4447   1.413       .  A
C4447      C4448   1.417       .  A
C4447      C4450   1.451       .  S
C4448      C4451   1.448       .  S
C4449      N4456   1.157       .  T
C4450      N4455   1.157       .  T
C4451      N4453   1.157       .  T
C4452      N4454   1.156       .  T
C4457      C4458   1.416       .  A
C4457      C4462   1.426       .  A
C4458      C4459   1.415       .  A
C4458      C4463   1.448       .  S
C4459      C4460   1.426       .  A
C4459      C4466   1.456       .  S
C4460      C4461   1.408       .  A
C4461      C4462   1.408       .  A
C4461      C4464   1.453       .  S
C4462      C4465   1.447       .  S
C4463      N4470   1.160       .  T
C4464      N4469   1.160       .  T
C4465      N4467   1.151       .  T
C4466      N4468   1.155       .  T
C4471      C4472   1.413       .  A
C4471      C4476   1.412       .  A
C4472      C4473   1.403       .  A
C4472      C4477   1.451       .  S
C4473      C4474   1.421       .  A
C4473      C4480   1.457       .  S
C4474      C4475   1.411       .  A
C4475      C4476   1.406       .  A
C4475      C4478   1.452       .  S
C4476      C4479   1.446       .  S
C4477      N4484   1.157       .  T
C4478      N4483   1.157       .  T
C4479      N4481   1.155   1_556  T
C4480      N4482   1.158       .  T
C4485      C4486   1.427       .  A
C4485      C4490   1.419       .  A
C4486      C4487   1.413       .  A
C4486      C4491   1.451       .  S
C4487      C4488   1.416       .  A
C4487      C4494   1.456       .  S
C4488      C4489   1.416       .  A
C4489      C4490   1.420       .  A
C4489      C4492   1.443       .  S
C4490      C4493   1.453       .  S
C4491      N4498   1.157       .  T
C4492      N4497   1.155       .  T
C4493      N4495   1.157       .  T
C4494      N4496   1.158       .  T
C4499      C4500   1.432       .  A
C4499      C4504   1.421       .  A
C4500      C4501   1.403       .  A
C4500      C4505   1.456       .  S
C4501      C4502   1.404       .  A
C4501      C4508   1.456       .  S
C4502      C4503   1.409       .  A
C4503      C4504   1.414       .  A
C4503      C4506   1.449       .  S
C4504      C4507   1.450       .  S
C4505      N4512   1.158       .  T
C4506      N4511   1.156       .  T
C4507      N4509   1.157       .  T
C4508      N4510   1.157       .  T
C4513      C4514   1.412       .  A
C4513      C4518   1.408       .  A
C4514      C4515   1.415       .  A
C4514      C4519   1.448       .  S
C4515      C4516   1.415       .  A
C4515      C4522   1.450       .  S
C4516      C4517   1.415       .  A
C4517      C4518   1.409       .  A
C4517      C4520   1.445       .  S
C4518      C4521   1.453       .  S
C4519      N4526   1.157       .  T
C4520      N4525   1.155       .  T
C4521      N4523   1.157       .  T
C4522      N4524   1.157       .  T
C4527      C4528   1.406       .  A
C4527      C4532   1.400       .  A
C4528      C4529   1.410       .  A
C4528      C4533   1.450       .  S
C4529      C4530   1.415       .  A
C4529      C4536   1.441       .  S
C4530      C4531   1.408       .  A
C4531      C4532   1.407       .  A
C4531      C4534   1.439       .  S
C4532      C4535   1.443       .  S
C4533      N4540   1.157       .  T
C4534      N4539   1.154       .  T
C4535      N4537   1.157   1_554  T
C4536      N4538   1.153       .  T
C4541      C4542   1.415       .  A
C4541      C4546   1.407       .  A
C4542      C4543   1.423       .  A
C4542      C4547   1.448       .  S
C4543      C4544   1.422       .  A
C4543      C4550   1.450       .  S
C4544      C4545   1.418       .  A
C4545      C4546   1.407       .  A
C4545      C4548   1.454       .  S
C4546      C4549   1.437       .  S
C4547      N4554   1.157       .  T
C4548      N4553   1.158       .  T
C4549      N4551   1.152       .  T
C4550      N4552   1.157       .  T
C4555      C4556   1.408       .  A
C4555      C4560   1.422       .  A
C4556      C4557   1.416       .  A
C4556      C4561   1.451       .  S
C4557      C4558   1.433       .  A
C4557      C4564   1.451       .  S
C4558      C4559   1.418       .  A
C4559      C4560   1.422       .  A
C4559      C4562   1.453       .  S
C4560      C4563   1.445       .  S
C4561      N4568   1.156       .  T
C4562      N4567   1.158       .  T
C4563      N4565   1.156       .  T
C4564      N4566   1.157       .  T
C4569      C4570   1.414       .  A
C4569      C4574   1.411       .  A
C4570      C4571   1.415       .  A
C4570      C4575   1.450       .  S
C4571      C4572   1.416       .  A
C4571      C4578   1.449       .  S
C4572      C4573   1.409       .  A
C4573      C4574   1.418       .  A
C4573      C4576   1.445       .  S
C4574      C4577   1.441       .  S
C4575      N4582   1.156       .  T
C4576      N4581   1.157       .  T
C4577      N4579   1.155       .  T
C4578      N4580   1.157       .  T
C4583      C4584   1.418       .  A
C4583      C4588   1.416       .  A
C4584      C4585   1.424       .  A
C4584      C4589   1.447       .  S
C4585      C4586   1.421       .  A
C4585      C4592   1.451       .  S
C4586      C4587   1.413       .  A
C4587      C4588   1.409       .  A
C4587      C4590   1.445       .  S
C4588      C4591   1.450       .  S
C4589      N4596   1.157       .  T
C4590      N4595   1.154       .  T
C4591      N4593   1.156       .  T
C4592      N4594   1.157       .  T
C4597      C4598   1.405       .  A
C4597      C4602   1.412       .  A
C4598      C4599   1.420       .  A
C4598      C4603   1.446       .  S
C4599      C4600   1.427       .  A
C4599      C4606   1.447       .  S
C4600      C4601   1.418       .  A
C4601      C4602   1.417       .  A
C4601      C4604   1.445       .  S
C4602      C4605   1.446       .  S
C4603      N4610   1.157       .  T
C4604      N4609   1.155       .  T
C4605      N4607   1.155       .  T
C4606      N4608   1.156       .  T
C4611      C4612   1.417       .  A
C4611      C4616   1.410       .  A
C4612      C4613   1.405       .  A
C4612      C4617   1.446       .  S
C4613      C4614   1.401       .  A
C4613      C4620   1.452       .  S
C4614      C4615   1.410       .  A
C4615      C4616   1.408       .  A
C4615      C4618   1.451       .  S
C4616      C4619   1.449       .  S
C4617      N4624   1.156       .  T
C4618      N4623   1.157       .  T
C4619      N4621   1.157       .  T
C4620      N4622   1.157       .  T
C4625      C4626   1.409       .  A
C4625      C4630   1.411       .  A
C4626      C4627   1.413       .  A
C4626      C4631   1.447       .  S
C4627      C4628   1.417       .  A
C4627      C4634   1.448       .  S
C4628      C4629   1.425       .  A
C4629      C4630   1.401       .  A
C4629      C4632   1.454       .  S
C4630      C4633   1.455       .  S
C4631      N4638   1.157       .  T
C4632      N4637   1.156       .  T
C4633      N4635   1.157       .  T
C4634      N4636   1.157       .  T
C4639      C4640   1.420       .  A
C4639      C4644   1.409       .  A
C4640      C4641   1.434       .  A
C4640      C4645   1.449       .  S
C4641      C4642   1.418       .  A
C4641      C4648   1.441       .  S
C4642      C4643   1.417       .  A
C4643      C4644   1.413       .  A
C4643      C4646   1.445       .  S
C4644      C4647   1.447       .  S
C4645      N4652   1.157   1_554  T
C4646      N4651   1.158       .  T
C4647      N4649   1.156       .  T
C4648      N4650   1.155       .  T
C4653      C4654   1.429       .  A
C4653      C4658   1.414       .  A
C4654      C4655   1.406       .  A
C4654      C4659   1.451       .  S
C4655      C4656   1.400       .  A
C4655      C4662   1.453       .  S
C4656      C4657   1.421       .  A
C4657      C4658   1.414       .  A
C4657      C4660   1.453       .  S
C4658      C4661   1.450       .  S
C4659      N4666   1.157       .  T
C4660      N4665   1.157       .  T
C4661      N4663   1.157       .  T
C4662      N4664   1.156       .  T
C4667      C4668   1.410       .  A
C4667      C4672   1.420       .  A
C4668      C4669   1.408       .  A
C4668      C4673   1.453       .  S
C4669      C4670   1.423       .  A
C4669      C4676   1.451       .  S
C4670      C4671   1.416       .  A
C4671      C4672   1.420       .  A
C4671      C4674   1.450       .  S
C4672      C4675   1.451       .  S
C4673      N4680   1.157       .  T
C4674      N4679   1.158       .  T
C4675      N4677   1.158       .  T
C4676      N4678   1.156       .  T
C4681      C4682   1.403       .  A
C4681      C4686   1.410       .  A
C4682      C4683   1.413       .  A
C4682      C4687   1.448       .  S
C4683      C4684   1.427       .  A
C4683      C4690   1.452       .  S
C4684      C4685   1.420       .  A
C4685      C4686   1.410       .  A
C4685      C4688   1.453       .  S
C4686      C4689   1.447       .  S
C4687      N4694   1.157       .  T
C4688      N4693   1.158       .  T
C4689      N4691   1.155       .  T
C4690      N4692   1.158       .  T
C4695      C4696   1.406       .  A
C4695      C4700   1.401       .  A
C4696      C4697   1.413       .  A
C4696      C4701   1.448       .  S
C4697      C4698   1.419       .  A
C4697      C4704   1.446       .  S
C4698      C4699   1.418       .  A
C4699      C4700   1.385       .  A
C4699      C4702   1.454       .  S
C4700      C4703   1.449       .  S
C4701      N4708   1.157       .  T
C4702      N4707   1.158       .  T
C4703      N4705   1.157       .  T
C4704      N4706   1.157       .  T
C4709      C4710   1.421       .  A
C4709      C4714   1.411       .  A
C4710      C4711   1.408       .  A
C4710      C4715   1.453       .  S
C4711      C4712   1.412       .  A
C4711      C4718   1.452       .  S
C4712      C4713   1.418       .  A
C4713      C4714   1.411       .  A
C4713      C4716   1.447       .  S
C4714      C4717   1.453       .  S
C4715      N4722   1.157       .  T
C4716      N4721   1.156       .  T
C4717      N4719   1.157       .  T
C4718      N4720   1.157       .  T
C4723      C4724   1.416       .  A
C4723      C4728   1.413       .  A
C4724      C4725   1.418       .  A
C4724      C4729   1.454       .  S
C4725      C4726   1.418       .  A
C4725      C4732   1.442       .  S
C4726      C4727   1.417       .  A
C4727      C4728   1.413       .  A
C4727      C4730   1.451       .  S
C4728      C4731   1.447       .  S
C4729      N4736   1.158       .  T
C4730      N4735   1.157       .  T
C4731      N4733   1.155   1_455  T
C4732      N4734   1.155       .  T
C4737      C4738   1.395       .  A
C4737      C4742   1.410       .  A
C4738      C4739   1.406       .  A
C4738      C4743   1.447       .  S
C4739      C4740   1.418       .  A
C4739      C4746   1.442       .  S
C4740      C4741   1.422       .  A
C4741      C4742   1.411       .  A
C4741      C4744   1.453       .  S
C4742      C4745   1.448       .  S
C4743      N4750   1.157       .  T
C4744      N4749   1.157       .  T
C4745      N4747   1.156       .  T
C4746      N4748   1.154       .  T
C4751      C4752   1.420       .  A
C4751      C4756   1.413       .  A
C4752      C4753   1.421       .  A
C4752      C4757   1.445       .  S
C4753      C4754   1.411       .  A
C4753      C4760   1.449       .  S
C4754      C4755   1.406       .  A
C4755      C4756   1.404       .  A
C4755      C4758   1.446       .  S
C4756      C4759   1.446       .  S
C4757      N4764   1.156       .  T
C4758      N4763   1.156       .  T
C4759      N4761   1.156       .  T
C4760      N4762   1.157   1_455  T
C4765      C4766   1.424       .  A
C4765      C4770   1.428       .  A
C4766      C4767   1.411       .  A
C4766      C4771   1.452       .  S
C4767      C4768   1.414       .  A
C4767      C4774   1.453       .  S
C4768      C4769   1.414       .  A
C4769      C4770   1.421       .  A
C4769      C4772   1.451       .  S
C4770      C4773   1.451       .  S
C4771      N4778   1.157       .  T
C4772      N4777   1.158       .  T
C4773      N4775   1.157       .  T
C4774      N4776   1.157       .  T
C4779      C4780   1.418       .  A
C4779      C4784   1.422       .  A
C4780      C4781   1.409       .  A
C4780      C4785   1.451       .  S
C4781      C4782   1.411       .  A
C4781      C4788   1.449       .  S
C4782      C4783   1.404       .  A
C4783      C4784   1.411       .  A
C4783      C4786   1.449       .  S
C4784      C4787   1.448       .  S
C4785      N4792   1.157       .  T
C4786      N4791   1.157       .  T
C4787      N4789   1.157       .  T
C4788      N4790   1.157       .  T
C4793      C4794   1.420       .  A
C4793      C4798   1.414       .  A
C4794      C4795   1.427       .  A
C4794      C4799   1.449       .  S
C4795      C4796   1.423       .  A
C4795      C4802   1.449       .  S
C4796      C4797   1.430       .  A
C4797      C4798   1.408       .  A
C4797      C4800   1.454       .  S
C4798      C4801   1.455       .  S
C4799      N4806   1.157       .  T
C4800      N4805   1.158       .  T
C4801      N4803   1.157       .  T
C4802      N4804   1.157       .  T
C4807      C4808   1.421       .  A
C4807      C4812   1.420       .  A
C4808      C4809   1.418       .  A
C4808      C4813   1.449       .  S
C4809      C4810   1.416       .  A
C4809      C4816   1.451       .  S
C4810      C4811   1.421       .  A
C4811      C4812   1.420       .  A
C4811      C4814   1.450       .  S
C4812      C4815   1.450       .  S
C4813      N4820   1.157   1_565  T
C4814      N4819   1.157       .  T
C4815      N4817   1.157       .  T
C4816      N4818   1.157       .  T
C4821      C4822   1.401       .  A
C4821      C4826   1.407       .  A
C4822      C4823   1.397       .  A
C4822      C4827   1.457       .  S
C4823      C4824   1.429       .  A
C4823      C4830   1.449       .  S
C4824      C4825   1.418       .  A
C4825      C4826   1.414       .  A
C4825      C4828   1.450       .  S
C4826      C4829   1.446       .  S
C4827      N4834   1.157       .  T
C4828      N4833   1.158   1_545  T
C4829      N4831   1.156       .  T
C4830      N4832   1.156       .  T
C4835      C4836   1.426       .  A
C4835      C4840   1.427       .  A
C4836      C4837   1.425       .  A
C4836      C4841   1.450       .  S
C4837      C4838   1.412       .  A
C4837      C4844   1.449       .  S
C4838      C4839   1.411       .  A
C4839      C4840   1.414       .  A
C4839      C4842   1.448       .  S
C4840      C4843   1.456       .  S
C4841      N4848   1.158       .  T
C4842      N4847   1.155       .  T
C4843      N4845   1.158       .  T
C4844      N4846   1.157       .  T
C4849      C4850   1.422       .  A
C4849      C4854   1.434       .  A
C4850      C4851   1.433       .  A
C4850      C4855   1.449       .  S
C4851      C4852   1.421       .  A
C4851      C4858   1.448       .  S
C4852      C4853   1.415       .  A
C4853      C4854   1.422       .  A
C4853      C4856   1.454       .  S
C4854      C4857   1.453       .  S
C4855      N4862   1.157       .  T
C4856      N4861   1.157       .  T
C4857      N4859   1.158       .  T
C4858      N4860   1.157       .  T
C4863      C4864   1.428       .  A
C4863      C4868   1.414       .  A
C4864      C4865   1.399       .  A
C4864      C4869   1.456       .  S
C4865      C4866   1.401       .  A
C4865      C4872   1.447       .  S
C4866      C4867   1.419       .  A
C4867      C4868   1.423       .  A
C4867      C4870   1.447       .  S
C4868      C4871   1.449       .  S
C4869      N4876   1.158       .  T
C4870      N4875   1.157       .  T
C4871      N4873   1.157       .  T
C4872      N4874   1.154       .  T
C4877      C4878   1.414       .  A
C4877      C4882   1.414       .  A
C4878      C4879   1.417       .  A
C4878      C4883   1.449       .  S
C4879      C4880   1.411       .  A
C4879      C4886   1.447       .  S
C4880      C4881   1.412       .  A
C4881      C4882   1.407       .  A
C4881      C4884   1.447       .  S
C4882      C4885   1.454       .  S
C4883      N4890   1.157       .  T
C4884      N4889   1.157       .  T
C4885      N4887   1.157       .  T
C4886      N4888   1.158       .  T
C4891      C4892   1.421       .  A
C4891      C4896   1.425       .  A
C4892      C4893   1.420       .  A
C4892      C4897   1.453       .  S
C4893      C4894   1.427       .  A
C4893      C4900   1.453       .  S
C4894      C4895   1.415       .  A
C4895      C4896   1.414       .  A
C4895      C4898   1.452       .  S
C4896      C4899   1.449       .  S
C4897      N4904   1.158       .  T
C4898      N4903   1.157       .  T
C4899      N4901   1.156       .  T
C4900      N4902   1.157       .  T
C4905      C4906   1.421       .  A
C4905      C4910   1.430       .  A
C4906      C4907   1.414       .  A
C4906      C4911   1.453       .  S
C4907      C4908   1.424       .  A
C4907      C4914   1.453       .  S
C4908      C4909   1.410       .  A
C4909      C4910   1.414       .  A
C4909      C4912   1.452       .  S
C4910      C4913   1.450       .  S
C4911      N4918   1.158       .  T
C4912      N4917   1.156       .  T
C4913      N4915   1.156       .  T
C4914      N4916   1.158       .  T
C4919      C4920   1.412       .  A
C4919      C4924   1.408       .  A
C4920      C4921   1.421       .  A
C4920      C4925   1.447       .  S
C4921      C4922   1.418       .  A
C4921      C4928   1.449       .  S
C4922      C4923   1.414       .  A
C4923      C4924   1.402       .  A
C4923      C4926   1.448       .  S
C4924      C4927   1.446       .  S
C4925      N4932   1.157       .  T
C4926      N4931   1.155       .  T
C4927      N4929   1.156       .  T
C4928      N4930   1.157       .  T
C4933      C4934   1.414       .  A
C4933      C4938   1.419       .  A
C4934      C4935   1.421       .  A
C4934      C4939   1.447       .  S
C4935      C4936   1.422       .  A
C4935      C4942   1.448       .  S
C4936      C4937   1.427       .  A
C4937      C4938   1.414       .  A
C4937      C4940   1.455       .  S
C4938      C4941   1.455       .  S
C4939      N4946   1.156       .  T
C4940      N4945   1.158       .  T
C4941      N4943   1.158       .  T
C4942      N4944   1.156       .  T
C4947      C4948   1.412       .  A
C4947      C4952   1.409       .  A
C4948      C4949   1.406       .  A
C4948      C4953   1.451       .  S
C4949      C4950   1.419       .  A
C4949      C4956   1.451       .  S
C4950      C4951   1.425       .  A
C4951      C4952   1.409       .  A
C4951      C4954   1.452       .  S
C4952      C4955   1.454       .  S
C4953      N4960   1.157       .  T
C4954      N4959   1.158       .  T
C4955      N4957   1.158       .  T
C4956      N4958   1.156       .  T
C4961      C4962   1.398       .  A
C4961      C4966   1.397       .  A
C4962      C4963   1.406       .  A
C4962      C4967   1.447       .  S
C4963      C4964   1.423       .  A
C4963      C4970   1.450       .  S
C4964      C4965   1.407       .  A
C4965      C4966   1.402       .  A
C4965      C4968   1.444       .  S
C4966      C4969   1.439       .  S
C4967      N4974   1.157       .  T
C4968      N4973   1.156       .  T
C4969      N4971   1.156       .  T
C4970      N4972   1.157       .  T
C4975      C4976   1.419       .  A
C4975      C4980   1.434       .  A
C4976      C4977   1.410       .  A
C4976      C4981   1.445       .  S
C4977      C4978   1.411       .  A
C4977      C4984   1.452       .  S
C4978      C4979   1.404       .  A
C4979      C4980   1.417       .  A
C4979      C4982   1.451       .  S
C4980      C4983   1.451       .  S
C4981      N4988   1.155       .  T
C4982      N4987   1.157       .  T
C4983      N4985   1.158       .  T
C4984      N4986   1.157       .  T
C4989      C4990   1.410       .  A
C4989      C4994   1.413       .  A
C4990      C4991   1.417       .  A
C4990      C4995   1.449       .  S
C4991      C4992   1.416       .  A
C4991      C4998   1.446       .  S
C4992      C4993   1.417       .  A
C4993      C4994   1.424       .  A
C4993      C4996   1.448       .  S
C4994      C4997   1.448       .  S
C4995      N5002   1.157       .  T
C4996      N5001   1.157       .  T
C4997      N4999   1.157       .  T
C4998      N5000   1.155       .  T
C5003      C5004   1.421       .  A
C5003      C5008   1.418       .  A
C5004      C5005   1.421       .  A
C5004      C5009   1.451   1_655  S
C5005      C5006   1.422       .  A
C5005      C5012   1.452       .  S
C5006      C5007   1.430       .  A
C5007      C5008   1.428       .  A
C5007      C5010   1.451       .  S
C5008      C5011   1.451       .  S
C5009      N5016   1.157       .  T
C5010      N5015   1.158       .  T
C5011      N5013   1.157       .  T
C5012      N5014   1.157       .  T
C5017      C5018   1.421       .  A
C5017      C5022   1.416       .  A
C5018      C5019   1.413       .  A
C5018      C5023   1.451       .  S
C5019      C5020   1.421       .  A
C5019      C5026   1.454       .  S
C5020      C5021   1.426       .  A
C5021      C5022   1.424       .  A
C5021      C5024   1.451       .  S
C5022      C5025   1.451       .  S
C5023      N5030   1.157       .  T
C5024      N5029   1.158       .  T
C5025      N5027   1.157       .  T
C5026      N5028   1.158       .  T
C5031      C5032   1.423       .  A
C5031      C5036   1.409       .  A
C5032      C5033   1.429       .  A
C5032      C5037   1.447       .  S
C5033      C5034   1.411       .  A
C5033      C5040   1.447       .  S
C5034      C5035   1.422       .  A
C5035      C5036   1.419       .  A
C5035      C5038   1.440       .  S
C5036      C5039   1.450       .  S
C5037      N5044   1.157   1_655  T
C5038      N5043   1.155       .  T
C5039      N5041   1.157       .  T
C5040      N5042   1.157       .  T
C5045      C5046   1.404       .  A
C5045      C5050   1.420       .  A
C5046      C5047   1.394       .  A
C5046      C5051   1.450       .  S
C5047      C5048   1.421       .  A
C5047      C5054   1.452       .  S
C5048      C5049   1.417       .  A
C5049      C5050   1.429       .  A
C5049      C5052   1.446       .  S
C5050      C5053   1.448       .  S
C5051      N5058   1.157       .  T
C5052      N5057   1.157       .  T
C5053      N5055   1.157       .  T
C5054      N5056   1.155       .  T
C5059      C5060   1.424       .  A
C5059      C5064   1.421       .  A
C5060      C5061   1.423       .  A
C5060      C5065   1.453       .  S
C5061      C5062   1.424       .  A
C5061      C5068   1.453       .  S
C5062      C5063   1.422       .  A
C5063      C5064   1.425       .  A
C5063      C5066   1.450       .  S
C5064      C5067   1.451       .  S
C5065      N5072   1.158       .  T
C5066      N5071   1.158       .  T
C5067      N5069   1.157   1_455  T
C5068      N5070   1.158       .  T
C5073      C5074   1.415       .  A
C5073      C5078   1.418       .  A
C5074      C5075   1.418       .  A
C5074      C5079   1.436       .  S
C5075      C5076   1.405       .  A
C5075      C5082   1.447       .  S
C5076      C5077   1.418       .  A
C5077      C5078   1.420       .  A
C5077      C5080   1.449       .  S
C5078      C5081   1.452       .  S
C5079      N5086   1.153       .  T
C5080      N5085   1.157       .  T
C5081      N5083   1.157       .  T
C5082      N5084   1.157       .  T
C5087      C5088   1.414       .  A
C5087      C5092   1.401       .  A
C5088      C5089   1.420       .  A
C5088      C5093   1.449       .  S
C5089      C5090   1.418       .  A
C5089      C5096   1.449       .  S
C5090      C5091   1.405       .  A
C5091      C5092   1.385       .  A
C5091      C5094   1.444       .  S
C5092      C5095   1.445       .  S
C5093      N5100   1.157       .  T
C5094      N5099   1.156       .  T
C5095      N5097   1.156       .  T
C5096      N5098   1.157       .  T
