geometry optimzed in LAMMPS
_audit_creation_date              2020-11-30 
_audit_creation_method            'lammps2cif' 
_symmetry_space_group_name_H-M    'P1' 
_symmetry_Int_Tables_number       1 
_symmetry_cell_setting            triclinic 
loop_ 
_symmetry_equiv_pos_as_xyz 
  x,y,z 
_cell_length_a                    28.80847895938322 
_cell_length_b                    52.50711437394082 
_cell_length_c                    48.25718672647559 
_cell_angle_alpha                 93.0254990884558 
_cell_angle_beta                  90.13679443526196 
_cell_angle_gamma                 88.27087397024573 
loop_ 
_atom_site_label 
_atom_site_type_symbol 
_atom_site_fract_x 
_atom_site_fract_y 
_atom_site_fract_z 
_atom_site_charge 
O1          O  0.13068389  0.20736648  0.04478687    -0.75680
O2          O  0.16687802  0.19229379  0.50483892    -0.54580
C3          C  0.15687252  0.20989798  0.52343506     0.78050
O4          O  0.19135447  0.07552400  0.08842650    -0.60280
O5          O  0.11950529  0.06413179  0.09483787    -0.53310
C6          C  0.15614797  0.07420233  0.10469751     0.70070
O7          O  0.27141771  0.13382590  0.03957040    -0.74840
O8          O  0.24297045  0.15565814  0.50334163    -0.55400
C9          C  0.27640689  0.14757304  0.51847227     0.76070
O10         O  0.02028174  0.15959420  0.10026722    -0.59980
O11         O  0.00859033  0.11791045  0.10304879    -0.53100
C12         C  0.02161251  0.13886205  0.11522525     0.72660
Zr13       Zr  0.08770256  0.17300339  0.06497531     2.54710
O14         O  0.09548538  0.19779388  0.10872789    -0.80550
O15         O  0.03714055  0.20949414  0.05468268    -0.93960
Zr16       Zr  0.20694964  0.11674126  0.06528192     2.64680
O17         O  0.23086028  0.12837285  0.11269577    -0.98920
O18         O  0.28949083  0.10659487  0.07036626    -0.80980
O19         O  0.17106559  0.15930725  0.05083278    -0.84340
O20         O  0.15011658  0.14985749  0.08338759    -2.19050
O21         O  0.97473379  0.10108546  0.51985099    -0.67730
O22         O  0.99356519  0.08426120  0.06111655    -0.52290
C23         C  0.96649248  0.08700020  0.04011365     0.71040
O24         O  0.16765830  0.08693574  0.45947060    -0.60630
O25         O  0.19683214  0.12668462  0.46235934    -0.52610
C26         C  0.18821310  0.10575095  0.44906927     0.72850
O27         O  0.09500898  0.04013437  0.52035258    -0.72030
O28         O  0.05198711  0.05385182  0.05809481    -0.50710
C29         C  0.06405253  0.03669636  0.03895118     0.74230
O30         O  0.06203288  0.13315214  0.45807646    -0.67360
O31         O  0.12697381  0.15651876  0.45762594    -0.54560
C32         C  0.09380724  0.14451992  0.44550757     0.72610
Zr33       Zr  0.03537284  0.12802990  0.50441391     2.77540
O34         O  0.97330509  0.11934911  0.47107512    -0.98110
O35         O  0.98708728  0.16697095  0.50667919    -0.78930
Zr36       Zr  0.14244912  0.07474585  0.50526128     2.70070
O37         O  0.13323642  0.04108170  0.46919965    -0.80180
O38         O  0.21460599  0.05060545  0.51215447    -0.99260
Zr39       Zr  0.16095176  0.14696944  0.50215602     2.21500
Zr40       Zr  0.07223724  0.09839984  0.07126858     2.11130
O41         O  0.06411756  0.08870474  0.52103047    -2.47950
O42         O  0.10982566  0.11355287  0.48759472    -0.79970
O43         O  0.03710984  0.13730422  0.05266682    -0.72160
O44         O  0.19880872  0.10778886  0.51607960    -2.33120
O45         O  0.08466916  0.16231431  0.51615998    -2.29330
O46         O  0.15472290  0.07746251  0.05509303    -0.73920
H47         H  0.15912778  0.15696583  0.10158997     0.78070
H48         H  0.22796078  0.10373679  0.50678113     0.79160
H49         H  0.04296872  0.07593274  0.51448746     0.81390
H50         H  0.07582057  0.17704808  0.50597203     0.78990
H51         H  0.29115948  0.08788748  0.07213231     0.42030
H52         H  0.20490867  0.03281030  0.01373435     0.41000
H53         H  0.10314064  0.04530852  0.46032838     0.40680
H54         H  0.98609367  0.10566715  0.45811097     0.38610
H55         H  0.96336101  0.16401783  0.52087445     0.41740
H56         H  0.04205254  0.21255954  0.03485138     0.36530
H57         H  0.12420039  0.20738711  0.10653595     0.42640
H58         H  0.24653528  0.11287304  0.11952493     0.39060
H59         H  0.97059984  0.13461425  0.45990733     0.43980
H60         H  0.05045324  0.22438727  0.06495482     0.42700
H61         H  0.25597842  0.14061869  0.11077725     0.42840
H62         H  0.23059209  0.05049773  0.49400383     0.43190
O63         O  0.50322275  0.16161837  0.00386863    -0.75680
O64         O  0.47680893  0.12079523  0.99865960    -0.54580
C65         C  0.47057647  0.14518491  0.00116043     0.78050
O66         O  0.70440981  0.12393169  0.43658322    -0.60280
O67         O  0.75424754  0.13667115  0.47064895    -0.53310
C68         C  0.74246389  0.13345133  0.44452577     0.70070
O69         O  0.57453892  0.09045178  0.42485848    -0.74840
O70         O  0.51500240  0.07937844  0.45225185    -0.55400
C71         C  0.53411195  0.08176155  0.42802146     0.76070
O72         O  0.65277232  0.19237849  0.01352160    -0.59980
O73         O  0.72356159  0.17243304  0.01961414    -0.53100
C74         C  0.69739135  0.19249725  0.01803046     0.72660
Zr75       Zr  0.58943110  0.16068884  0.00625345     2.54710
O76         O  0.57688500  0.18613565  0.46603965    -0.80550
O77         O  0.56299034  0.19516374  0.03872195    -0.93960
Zr78       Zr  0.63639194  0.10662121  0.45295224     2.64680
O79         O  0.61713720  0.13659354  0.41754380    -0.98920
O80         O  0.67184810  0.07463528  0.42060322    -0.80980
O81         O  0.57049141  0.12505500  0.97564252    -0.84340
O82         O  0.65482644  0.14256573  0.98216696    -2.19050
O83         O  0.68004053  0.12317274  0.09026208    -0.67730
O84         O  0.74082029  0.13357878  0.06351821    -0.52290
C85         C  0.72200327  0.12939624  0.08729823     0.71040
O86         O  0.60066474  0.02900399  0.01875207    -0.60630
O87         O  0.52983496  0.04651658  0.00799364    -0.52610
C88         C  0.55598132  0.02797682  0.01610706     0.72850
O89         O  0.74725009  0.05834997  0.02151115    -0.72030
O90         O  0.77538369  0.09863513  0.02039206    -0.50710
C91         C  0.78007190  0.07456597  0.02351114     0.74230
O92         O  0.56542819  0.07669025  0.06904012    -0.67360
O93         O  0.50057761  0.08429003  0.04520554    -0.54560
C94         C  0.52135260  0.07849045  0.06788096     0.72610
Zr95       Zr  0.61183806  0.11366732  0.06455506     2.77540
O96         O  0.59542018  0.10605747  0.11303644    -0.98110
O97         O  0.56766852  0.14969884  0.08602735    -0.78930
Zr98       Zr  0.66307305  0.05960107  0.01187898     2.70070
O99         O  0.68507156  0.03009148  0.04718707    -0.80180
O100        O  0.68550996  0.02930249  0.47404415    -0.99260
Zr101      Zr  0.54175604  0.09116190  0.00117877     2.21500
Zr102      Zr  0.71046657  0.12765330  0.01479235     2.11130
O103        O  0.67946407  0.09535656  0.04226073    -2.47950
O104        O  0.59714190  0.07798485  0.03453010    -0.79970
O105        O  0.64403072  0.14606232  0.03918949    -0.72160
O106        O  0.60853055  0.07281555  0.97795552    -2.33120
O107        O  0.55762796  0.12772088  0.03193085    -2.29330
O108        O  0.69314989  0.09169732  0.98445102    -0.73920
H109        H  0.66759424  0.15578596  0.47157602     0.78070
H110        H  0.60042387  0.05846796  0.46573078     0.79160
H111        H  0.70148746  0.08931956  0.05568844     0.81390
H112        H  0.52988738  0.13354241  0.04177269     0.78990
H113        H  0.65735769  0.05844634  0.42488674     0.42030
H114        H  0.71375148  0.03641457  0.46617300     0.41000
H115        H  0.67735383  0.03952224  0.06497524     0.40680
H116        H  0.60851856  0.08880892  0.11616120     0.38610
H117        H  0.59157884  0.16142068  0.09337426     0.41740
H118        H  0.54417567  0.18687261  0.05258354     0.36530
H119        H  0.55584919  0.17595526  0.45391082     0.42640
H120        H  0.63036580  0.15298873  0.42421591     0.39060
H121        H  0.61475723  0.11784825  0.12443784     0.43980
H122        H  0.54022321  0.20529698  0.02813407     0.42700
H123        H  0.63630310  0.13085173  0.40125023     0.42840
H124        H  0.69692300  0.01398291  0.98339238     0.43190
O125        O  0.33159276  0.28270905  0.03881607    -0.75680
O126        O  0.31880992  0.28378122  0.49258134    -0.54580
C127        C  0.30818551  0.27657737  0.51675988     0.78050
O128        O  0.33008497  0.38608573  0.09449664    -0.60280
O129        O  0.40794068  0.38401559  0.10276122    -0.53310
C130        C  0.36514057  0.38494424  0.11090861     0.70070
O131        O  0.24886272  0.35791081  0.02026621    -0.74840
O132        O  0.26532879  0.32978645  0.48349850    -0.55400
C133        C  0.23800119  0.34494071  0.49798268     0.76070
O134        O  0.43577263  0.31777473  0.09850206    -0.59980
O135        O  0.48675425  0.34612163  0.08642452    -0.53100
C136        C  0.46572734  0.33498011  0.10501289     0.72660
Zr137      Zr  0.40312966  0.30486219  0.05177387     2.54710
O138        O  0.38682153  0.27429876  0.08645726    -0.80550
O139        O  0.46027004  0.27088179  0.03995142    -0.93960
Zr140      Zr  0.31694181  0.36657292  0.04836023     2.64680
O141        O  0.26597329  0.34356155  0.07782661    -0.98920
O142        O  0.26951436  0.40571681  0.05275218    -0.80980
O143        O  0.33552662  0.32411133  0.03236383    -0.84340
O144        O  0.38343679  0.34713912  0.06702175    -2.19050
O145        O  0.53331288  0.33130010  0.02985211    -0.67730
O146        O  0.52995765  0.37010900  0.05250861    -0.52290
C147        C  0.55247732  0.35007084  0.04275198     0.71040
O148        O  0.36737501  0.37559773  0.44077786    -0.60630
O149        O  0.30995998  0.35072818  0.45213235    -0.52610
C150        C  0.33424672  0.36032772  0.43402521     0.72850
O151        O  0.43922837  0.42654173  0.00827879    -0.72030
O152        O  0.46649716  0.41883883  0.05161843    -0.50710
C153        C  0.46104810  0.43313512  0.03071777     0.74230
O154        O  0.45647337  0.30245335  0.45536504    -0.67360
O155        O  0.38813791  0.31364348  0.43833345    -0.54560
C156        C  0.43221677  0.30982251  0.43510395     0.72610
Zr157      Zr  0.47822795  0.33210481  0.49279587     2.77540
O158        O  0.52782528  0.36029152  0.46810992    -0.98110
O159        O  0.53343698  0.29824274  0.47757132    -0.78930
Zr160      Zr  0.39266905  0.39252902  0.48761969     2.70070
O161        O  0.42839502  0.41753546  0.45281732    -0.80180
O162        O  0.32786756  0.42327386  0.48580277    -0.99260
Zr163      Zr  0.34885386  0.32485411  0.48371650     2.21500
Zr164      Zr  0.44578843  0.37430939  0.05708459     2.11130
O165        O  0.46010289  0.37499164  0.00849003    -2.47950
O166        O  0.41217775  0.35024396  0.47179657    -0.79970
O167        O  0.46409784  0.33137955  0.04073287    -0.72160
O168        O  0.33086633  0.36791671  0.50049589    -2.33120
O169        O  0.41617018  0.30491241  0.50320840    -2.29330
O170        O  0.37848439  0.39328029  0.03663255    -0.73920
H171        H  0.37596188  0.34485983  0.08595470     0.78070
H172        H  0.30436955  0.37617177  0.49222801     0.79160
H173        H  0.48601459  0.38580584  0.50600835     0.81390
H174        H  0.42052827  0.28755647  0.49578664     0.78990
H175        H  0.29204738  0.41957329  0.05255527     0.42030
H176        H  0.32699660  0.43197711  0.00450377     0.41000
H177        H  0.44761582  0.40501617  0.44146449     0.40680
H178        H  0.50659360  0.37316974  0.46014611     0.38610
H179        H  0.53171586  0.28553535  0.99195830     0.41740
H180        H  0.44240498  0.25504189  0.03933996     0.36530
H181        H  0.36619677  0.28380068  0.10003416     0.42640
H182        H  0.28727649  0.33405223  0.08998651     0.39060
H183        H  0.54630834  0.36988622  0.48220376     0.43980
H184        H  0.47992404  0.26985476  0.05673982     0.42700
H185        H  0.25104677  0.35692039  0.09034609     0.42840
H186        H  0.33861642  0.43635072  0.47344710     0.43190
O187        O  0.93742345  0.43660064  0.04497769    -0.75680
O188        O  0.95790573  0.42875201  0.49981387    -0.54580
C189        C  0.95804220  0.44274152  0.52275871     0.78050
O190        O  0.96958730  0.32978356  0.09690999    -0.60280
O191        O  0.89333800  0.32171287  0.10430401    -0.53310
C192        C  0.93520736  0.32521197  0.11267474     0.70070
O193        O  0.04242950  0.35498121  0.02228251    -0.74840
O194        O  0.01950898  0.37785648  0.48533157    -0.55400
C195        C  0.04976295  0.36512554  0.49923283     0.76070
O196        O  0.85554145  0.39355847  0.10696795    -0.59980
O197        O  0.80959650  0.36239072  0.09185419    -0.53100
C198        C  0.82705473  0.37580971  0.11158421     0.72660
Zr199      Zr  0.88655328  0.40441463  0.06128168     2.54710
O200        O  0.92030503  0.42965480  0.09955311    -0.80550
O201        O  0.82351992  0.43626278  0.06021690    -0.93960
Zr202      Zr  0.97804121  0.34539147  0.05054009     2.64680
O203        O  0.03219308  0.36984031  0.07928829    -0.98920
O204        O  0.02740334  0.30702994  0.05208030    -0.80980
O205        O  0.95436014  0.38709988  0.03793010    -0.84340
O206        O  0.91206230  0.36319848  0.07308707    -2.19050
O207        O  0.75110792  0.35481976  0.03436898    -0.67730
O208        O  0.77345266  0.32802488  0.06790683    -0.52290
C209        C  0.74293307  0.33981395  0.05392550     0.71040
O210        O  0.93465773  0.32587139  0.44466008    -0.60630
O211        O  0.96191342  0.36653337  0.44665182    -0.52610
C212        C  0.95551098  0.34489382  0.43409949     0.72850
O213        O  0.84399060  0.28259010  0.00449226    -0.72030
O214        O  0.82750644  0.28996902  0.05049602    -0.50710
C215        C  0.82350114  0.27705496  0.02714730     0.74230
O216        O  0.81355067  0.37585862  0.45613993    -0.67360
O217        O  0.88744583  0.38649717  0.44582529    -0.54560
C218        C  0.84599556  0.37910039  0.43890068     0.72610
Zr219      Zr  0.80798221  0.37378292  0.50506534     2.77540
O220        O  0.73630519  0.36678543  0.47914710    -0.98110
O221        O  0.77177192  0.41627234  0.51020924    -0.78930
Zr222      Zr  0.90101000  0.31401762  0.49079043     2.70070
O223        O  0.89484270  0.28236743  0.45203451    -0.80180
O224        O  0.96476933  0.28491346  0.00213464    -0.99260
Zr225      Zr  0.93498549  0.38425787  0.48973729     2.21500
Zr226      Zr  0.85359874  0.33317899  0.06182973     2.11130
O227        O  0.83252925  0.33152799  0.01382341    -2.47950
O228        O  0.87432293  0.35569101  0.48200102    -0.79970
O229        O  0.82674883  0.37533139  0.05191312    -0.72160
O230        O  0.95972781  0.34244780  0.00250032    -2.33120
O231        O  0.86807343  0.40336911  0.51299326    -2.29330
O232        O  0.92066065  0.31495267  0.03895411    -0.73920
H233        H  0.91873500  0.36586344  0.09244184     0.78070
H234        H  0.98522953  0.33544466  0.49139675     0.79160
H235        H  0.80532128  0.32172699  0.00984176     0.81390
H236        H  0.86048417  0.42007174  0.50646779     0.78990
H237        H  0.00628972  0.29346452  0.05707082     0.42030
H238        H  0.94948986  0.26915383  0.00714521     0.41000
H239        H  0.86882665  0.27133847  0.45628986     0.40680
H240        H  0.73145411  0.34820814  0.47944549     0.38610
H241        H  0.74723721  0.41468536  0.02429606     0.41740
H242        H  0.83916557  0.45250951  0.05767538     0.36530
H243        H  0.94536974  0.41846146  0.10670858     0.42640
H244        H  0.01269204  0.37833165  0.09413669     0.39060
H245        H  0.71124239  0.37476394  0.49096268     0.43980
H246        H  0.81180585  0.43782381  0.07952310     0.42700
H247        H  0.05105143  0.35684999  0.08879590     0.42840
H248        H  0.97988665  0.28028646  0.48408767     0.43190
O249        O  0.27698082  0.12893940  0.20383385    -0.75680
O250        O  0.25036588  0.10181580  0.23084551    -0.54580
C251        C  0.24337499  0.12198747  0.21869912     0.78050
O252        O  0.38623592  0.50708916  0.25634943    -0.60280
O253        O  0.45036913  0.02304288  0.23738221    -0.53310
C254        C  0.42896089  0.50528749  0.24840825     0.70070
O255        O  0.23884653  0.04396292  0.24370567    -0.74840
O256        O  0.21578133  0.08160176  0.26625314    -0.55400
C257        C  0.20726468  0.06042703  0.25238392     0.76070
O258        O  0.41221564  0.08654061  0.17824884    -0.59980
O259        O  0.47221195  0.06871813  0.20228958    -0.53100
C260        C  0.45300189  0.07644033  0.17966654     0.72660
Zr261      Zr  0.34987838  0.10142696  0.20760049     2.54710
O262        O  0.30874891  0.08079040  0.16886248    -0.80550
O263        O  0.37251767  0.13649313  0.17999522    -0.93960
Zr264      Zr  0.32356618  0.03925507  0.25049236     2.64680
O265        O  0.31630694  0.51346625  0.20731499    -0.98920
O266        O  0.28622255  0.50583283  0.27476482    -0.80980
O267        O  0.29865432  0.07938851  0.23510091    -0.84340
O268        O  0.37666167  0.06030206  0.22239537    -2.19050
O269        O  0.50045741  0.12407241  0.27564334    -0.67730
O270        O  0.51832231  0.08430994  0.25632082    -0.52290
C271        C  0.53053855  0.10530407  0.26827457     0.71040
O272        O  0.29943085  0.08206033  0.34330925    -0.60630
O273        O  0.24881007  0.10650927  0.31916965    -0.52610
C274        C  0.26097530  0.09453570  0.34050103     0.72850
O275        O  0.42835358  0.04107638  0.31614017    -0.72030
O276        O  0.48833179  0.05536460  0.29416736    -0.50710
C277        C  0.46998028  0.04801573  0.31682496     0.74230
O278        O  0.34912830  0.17011675  0.28077674    -0.67360
O279        O  0.27680798  0.15296199  0.28044505    -0.54560
C280        C  0.30373273  0.17218864  0.28112582     0.72610
Zr281      Zr  0.41062111  0.13459854  0.27510782     2.77540
O282        O  0.43349777  0.15813730  0.31751047    -0.98110
O283        O  0.44178423  0.16718294  0.24693130    -0.78930
Zr284      Zr  0.37251881  0.07539105  0.31897024     2.70070
O285        O  0.41241346  0.10292454  0.35286884    -0.80180
O286        O  0.37145397  0.05141378  0.36084804    -0.99260
Zr287      Zr  0.28587455  0.10631870  0.27513336     2.21500
Zr288      Zr  0.44381670  0.06709589  0.25111947     2.11130
O289        O  0.42971115  0.09452779  0.29185793    -2.47950
O290        O  0.35225983  0.11580957  0.30302118    -0.79970
O291        O  0.42003918  0.10759914  0.23427903    -0.72160
O292        O  0.30735743  0.06585532  0.29115483    -2.33120
O293        O  0.34132979  0.12776294  0.24815839    -2.29330
O294        O  0.38848033  0.04742187  0.27935116    -0.73920
H295        H  0.38462932  0.04910524  0.20648824     0.78070
H296        H  0.28251976  0.05833093  0.30095395     0.79160
H297        H  0.45652640  0.09691367  0.30350063     0.81390
H298        H  0.32981410  0.14353693  0.24106171     0.78990
H299        H  0.26294311  0.51478728  0.28713184     0.42030
H300        H  0.34430922  0.04034569  0.35871692     0.41000
H301        H  0.38722601  0.11316466  0.36242799     0.40680
H302        H  0.45480766  0.14621706  0.32692723     0.38610
H303        H  0.44832320  0.15826253  0.22870566     0.41740
H304        H  0.36318089  0.15210311  0.19126465     0.36530
H305        H  0.29736844  0.06488818  0.17625596     0.42640
H306        H  0.34748432  0.50544305  0.20401387     0.39060
H307        H  0.45382592  0.17152043  0.31112198     0.43980
H308        H  0.35072079  0.13606243  0.16409244     0.42700
H309        H  0.29668529  0.49920419  0.21219437     0.42840
H310        H  0.36303591  0.06397392  0.37617507     0.43190
O311        O  0.98348523  0.07144938  0.20914862    -0.75680
O312        O  0.01526617  0.09959947  0.23609087    -0.54580
C313        C  0.01889230  0.07822695  0.22355604     0.78050
O314        O  0.88461018  0.19980410  0.26077306    -0.60280
O315        O  0.81423936  0.18095439  0.25977974    -0.53310
C316        C  0.83989351  0.20019089  0.26016835     0.70070
O317        O  0.02824641  0.16089663  0.25015061    -0.74840
O318        O  0.05288992  0.12390865  0.26916694    -0.55400
C319        C  0.06021950  0.14450484  0.25641507     0.76070
O320        O  0.84829163  0.11780806  0.18976745    -0.59980
O321        O  0.79556251  0.13933351  0.21849537    -0.53100
C322        C  0.81064538  0.13097832  0.19430294     0.72660
Zr323      Zr  0.91200153  0.10048107  0.21593362     2.54710
O324        O  0.94323968  0.11537882  0.17312660    -0.80550
O325        O  0.88096870  0.06338819  0.19070289    -0.93960
Zr326      Zr  0.94496545  0.16573050  0.26050389     2.64680
O327        O  0.95581022  0.18866990  0.21848450    -0.98920
O328        O  0.98176739  0.19915473  0.28886799    -0.80980
O329        O  0.96707578  0.12442194  0.24198490    -0.84340
O330        O  0.88910756  0.14259293  0.23459524    -2.19050
O331        O  0.76866921  0.08075475  0.28139690    -0.67730
O332        O  0.75342849  0.12020180  0.26600584    -0.52290
C333        C  0.73923681  0.09930748  0.27436353     0.71040
O334        O  0.98205871  0.12915581  0.34971081    -0.60630
O335        O  0.03182697  0.10566280  0.32140590    -0.52610
C336        C  0.02210380  0.11885278  0.34373258     0.72850
O337        O  0.84424776  0.16588921  0.33375859    -0.72030
O338        O  0.78449111  0.14930732  0.31137071    -0.50710
C339        C  0.80324210  0.15794736  0.33433671     0.74230
O340        O  0.92210029  0.03741469  0.28755899    -0.67360
O341        O  0.99378675  0.05539380  0.28876756    -0.54560
C342        C  0.96734856  0.03617030  0.28871478     0.72610
Zr343      Zr  0.85945142  0.07159540  0.28399154     2.77540
O344        O  0.83642583  0.05302983  0.32685701    -0.98110
O345        O  0.83046945  0.03475193  0.25735567    -0.78930
Zr346      Zr  0.90426376  0.13348194  0.33009051     2.70070
O347        O  0.87101593  0.10745018  0.36485433    -0.80180
O348        O  0.91675207  0.15927045  0.37282095    -0.99260
Zr349      Zr  0.98407261  0.10059472  0.28115757     2.21500
Zr350      Zr  0.82674893  0.13770769  0.26628175     2.11130
O351        O  0.84437630  0.11217266  0.30451715    -2.47950
O352        O  0.92105093  0.09207971  0.31088583    -0.79970
O353        O  0.84534054  0.09644502  0.24518730    -0.72160
O354        O  0.96493079  0.14199137  0.29956594    -2.33120
O355        O  0.92622919  0.07691303  0.25534089    -2.29330
O356        O  0.88425557  0.15997568  0.29265301    -0.73920
H357        H  0.87971006  0.15343013  0.21993069     0.78070
H358        H  0.99085858  0.15048380  0.30824866     0.79160
H359        H  0.81902832  0.10956573  0.31673980     0.81390
H360        H  0.93762066  0.06051781  0.24796203     0.78990
H361        H  0.96190171  0.20147961  0.30558351     0.42030
H362        H  0.91293670  0.17721410  0.36765522     0.41000
H363        H  0.89798961  0.09799395  0.37247677     0.40680
H364        H  0.80205288  0.05357281  0.32638103     0.38610
H365        H  0.84338667  0.03618117  0.23852854     0.41740
H366        H  0.89879960  0.04864799  0.19771318     0.36530
H367        H  0.93662626  0.13402495  0.17428127     0.42640
H368        H  0.92440093  0.19090001  0.21043409     0.39060
H369        H  0.84514898  0.03468742  0.32412513     0.43980
H370        H  0.89211157  0.06466263  0.17144338     0.42700
H371        H  0.96426658  0.20605091  0.22525373     0.42840
H372        H  0.88969679  0.15637980  0.38472091     0.43190
O373        O  0.21927181  0.35507807  0.18905296    -0.75680
O374        O  0.26644794  0.33131140  0.21617457    -0.54580
C375        C  0.25887529  0.34492049  0.19485537     0.78050
O376        O  0.12836330  0.44235530  0.27509421    -0.60280
O377        O  0.05576085  0.42605019  0.27177398    -0.53310
C378        C  0.08326478  0.44467632  0.27469233     0.70070
O379        O  0.27617295  0.39991055  0.27197519    -0.74840
O380        O  0.26829348  0.36747263  0.24336667    -0.55400
C381        C  0.29442041  0.37999524  0.25908180     0.76070
O382        O  0.06673058  0.36874358  0.19077016    -0.59980
O383        O  0.02009923  0.37494227  0.22856913    -0.53100
C384        C  0.02721855  0.36907302  0.20264409     0.72660
Zr385      Zr  0.14205735  0.35811533  0.20826497     2.54710
O386        O  0.14491112  0.38742709  0.17093021    -0.80550
O387        O  0.13445131  0.32253094  0.17415616    -0.93960
Zr388      Zr  0.18915357  0.40720725  0.26866083     2.64680
O389        O  0.21351101  0.43215760  0.23043889    -0.98920
O390        O  0.21891507  0.43829996  0.30288984    -0.80980
O391        O  0.20307757  0.37134965  0.23706781    -0.84340
O392        O  0.12572498  0.39465735  0.23912918    -2.19050
O393        O  0.01106620  0.32168973  0.26311268    -0.67730
O394        O  0.99646532  0.36417828  0.27425674    -0.52290
C395        C  0.98309971  0.34182762  0.26813434     0.71040
O396        O  0.22665412  0.34441445  0.33801425    -0.60630
O397        O  0.27560897  0.33248068  0.30225922    -0.52610
C398        C  0.26642884  0.33744322  0.32818634     0.72850
O399        O  0.08889670  0.38329980  0.34353941    -0.72030
O400        O  0.02812017  0.38136667  0.31498800    -0.50710
C401        C  0.04596140  0.37939447  0.33920182     0.74230
O402        O  0.16162605  0.27466702  0.26790720    -0.67360
O403        O  0.23540986  0.28902080  0.26266604    -0.54560
C404        C  0.20682327  0.27125680  0.26685290     0.72610
Zr405      Zr  0.09946029  0.30953387  0.26349468     2.77540
O406        O  0.06696233  0.28119664  0.29628371    -0.98110
O407        O  0.07519802  0.28062623  0.22544145    -0.78930
Zr408      Zr  0.15046041  0.35630908  0.32319707     2.70070
O409        O  0.12311381  0.31915301  0.34575855    -0.80180
O410        O  0.17541105  0.37110958  0.36954924    -0.99260
Zr411      Zr  0.22466200  0.33457962  0.26119333     2.21500
Zr412      Zr  0.06873497  0.38088909  0.27028243     2.11130
O413        O  0.08624225  0.34411656  0.29599578    -2.47950
O414        O  0.16495994  0.32148213  0.29102651    -0.79970
O415        O  0.08346622  0.34587267  0.23830321    -0.72160
O416        O  0.20887867  0.37028169  0.29366198    -2.33120
O417        O  0.16057316  0.32100018  0.23302954    -2.29330
O418        O  0.13102563  0.39399335  0.29966149    -0.73920
H419        H  0.11388368  0.40874647  0.22883009     0.78070
H420        H  0.23539011  0.37546387  0.30449152     0.79160
H421        H  0.06121698  0.33913900  0.30759939     0.81390
H422        H  0.17000071  0.30675566  0.22061419     0.78990
H423        H  0.22559110  0.42836595  0.31939559     0.42030
H424        H  0.16111023  0.38835120  0.37304801     0.41000
H425        H  0.15018080  0.31305466  0.35650928     0.40680
H426        H  0.04776544  0.29248364  0.30905621     0.38610
H427        H  0.08753664  0.28793657  0.20856319     0.41740
H428        H  0.15739115  0.32562574  0.15956082     0.36530
H429        H  0.16437770  0.40143512  0.17837627     0.42640
H430        H  0.18423850  0.43924544  0.22278137     0.39060
H431        H  0.04416204  0.27117896  0.28526713     0.43980
H432        H  0.10393776  0.32550870  0.16522628     0.42700
H433        H  0.22866709  0.44707364  0.23954050     0.42840
H434        H  0.15979164  0.36023411  0.38258576     0.43190
O435        O  0.55705115  0.37559352  0.20974638    -0.75680
O436        O  0.50400125  0.36545280  0.24022341    -0.54580
C437        C  0.51653243  0.36867006  0.21513408     0.78050
O438        O  0.64985380  0.26831236  0.27244481    -0.60280
O439        O  0.72011760  0.28760546  0.27344720    -0.53310
C440        C  0.69469984  0.26824394  0.27181581     0.70070
O441        O  0.50106976  0.31350380  0.26965456    -0.74840
O442        O  0.49275010  0.34523622  0.30115855    -0.55400
C443        C  0.47532035  0.33137157  0.28238117     0.76070
O444        O  0.69870664  0.35227533  0.20196282    -0.59980
O445        O  0.74939456  0.33216137  0.23019716    -0.53100
C446        C  0.73927490  0.34375940  0.20790770     0.72660
Zr447      Zr  0.62254243  0.34936703  0.22078644     2.54710
O448        O  0.60128786  0.31025675  0.19505319    -0.80550
O449        O  0.62334270  0.35924517  0.17193175    -0.93960
Zr450      Zr  0.58757844  0.30166013  0.27737840     2.64680
O451        O  0.55920986  0.26780701  0.24588757    -0.98920
O452        O  0.55932793  0.27632703  0.31430163    -0.80980
O453        O  0.56408735  0.33605905  0.25061441    -0.84340
O454        O  0.64710798  0.31450638  0.24665930    -2.19050
O455        O  0.76214070  0.39027051  0.27611636    -0.67730
O456        O  0.77931929  0.34774093  0.26801618    -0.52290
C457        C  0.79148831  0.37049753  0.27231356     0.71040
O458        O  0.56776561  0.37386044  0.35637615    -0.60630
O459        O  0.50740046  0.36987400  0.32792534    -0.52610
C460        C  0.52590027  0.36735688  0.35198825     0.72850
O461        O  0.71525146  0.34625083  0.35367325    -0.72030
O462        O  0.76065076  0.33436077  0.31640006    -0.50710
C463        C  0.75486018  0.34179337  0.34225507     0.74230
O464        O  0.60727733  0.43227719  0.27748132    -0.67360
O465        O  0.53716722  0.41457063  0.28640962    -0.54560
C466        C  0.56261248  0.43315990  0.28111668     0.72610
Zr467      Zr  0.67237256  0.40006631  0.27811098     2.77540
O468        O  0.69877294  0.43129659  0.31332584    -0.98110
O469        O  0.69607132  0.42792264  0.24227504    -0.78930
Zr470      Zr  0.63716566  0.35207599  0.33710339     2.70070
O471        O  0.65751066  0.37968603  0.37709702    -0.80180
O472        O  0.62226597  0.31828386  0.36834141    -0.99260
Zr473      Zr  0.55050457  0.37045185  0.28395234     2.21500
Zr474      Zr  0.70801868  0.33156650  0.27510709     2.11130
O475        O  0.69207391  0.36694473  0.30606629    -2.47950
O476        O  0.61450640  0.38699298  0.31015847    -0.79970
O477        O  0.68559175  0.36500181  0.24708094    -0.72160
O478        O  0.57587539  0.33550411  0.31055548    -2.33120
O479        O  0.60683446  0.38511043  0.25218874    -2.29330
O480        O  0.65246773  0.31587216  0.30589032    -0.73920
H481        H  0.65847598  0.30066620  0.23428437     0.78070
H482        H  0.55511464  0.32871356  0.32376541     0.79160
H483        H  0.71792149  0.37426108  0.31573285     0.81390
H484        H  0.59509344  0.39940763  0.24226941     0.78990
H485        H  0.52580509  0.28094764  0.31573102     0.42030
H486        H  0.62731741  0.30220249  0.35695975     0.41000
H487        H  0.66921000  0.39520287  0.36900310     0.40680
H488        H  0.72668506  0.43845912  0.30511734     0.38610
H489        H  0.72690812  0.42101106  0.23611492     0.41740
H490        H  0.62207862  0.37811177  0.17188100     0.36530
H491        H  0.56820033  0.31307744  0.19019646     0.42640
H492        H  0.58145297  0.26676919  0.23023083     0.39060
H493        H  0.67517235  0.44539997  0.31343578     0.43980
H494        H  0.59305173  0.35389707  0.16422925     0.42700
H495        H  0.56508122  0.25187995  0.25560469     0.42840
H496        H  0.64863581  0.31867472  0.38153720     0.43190
C497        C  0.93130826  0.34265400  0.26607470    -0.06510
C498        C  0.91265538  0.35964447  0.24669761    -0.17640
C499        C  0.87080810  0.37396954  0.25124026     0.10690
C500        C  0.84340865  0.37038667  0.27468010    -0.06430
C501        C  0.86233524  0.35359789  0.29418815    -0.17670
C502        C  0.90472094  0.33976998  0.29009508     0.10720
S503        S  0.85629271  0.39845200  0.22783120    -0.32630
S504        S  0.92445983  0.31967578  0.31716047    -0.32640
H505        H  0.95442334  0.30410033  0.30017219     0.28730
H506        H  0.82378906  0.41167036  0.24534696     0.28720
H507        H  0.93346075  0.36404923  0.22918615     0.19320
H508        H  0.84215145  0.34964320  0.31210893     0.19320
C509        C  0.42939617  0.34219923  0.27267699    -0.06510
C510        C  0.42437448  0.36935318  0.27335723    -0.17640
C511        C  0.38218487  0.38231646  0.26821848     0.10690
C512        C  0.34207209  0.36828945  0.26330887    -0.06430
C513        C  0.34739697  0.34117640  0.26115779    -0.17670
C514        C  0.38977591  0.32811266  0.26630579     0.10720
S515        S  0.38209609  0.41659435  0.26793919    -0.32630
S516        S  0.38983726  0.29378686  0.26629115    -0.32640
H517        H  0.42408633  0.29132231  0.28683801     0.28730
H518        H  0.34825944  0.42047378  0.28874901     0.28720
H519        H  0.45372415  0.38101457  0.27881536     0.19320
H520        H  0.31759568  0.32967923  0.25678747     0.19320
C521        C  0.99287633  0.01112962  0.28657546    -0.06510
C522        C  0.00258184  0.00060681  0.25975492    -0.17640
C523        C  0.03534258  0.48046240  0.25514981     0.10690
C524        C  0.05937398  0.47016301  0.27777288    -0.06430
C525        C  0.05014218  0.48084977  0.30460227    -0.17670
C526        C  0.01763356  0.00124983  0.30917374     0.10720
S527        S  0.04501102  0.46857603  0.21981527    -0.32630
S528        S  0.00894973  0.01374367  0.34433560    -0.32640
H529        H  0.96396865  0.02404624  0.34033902     0.28730
H530        H  0.09097440  0.45974213  0.22386665     0.28720
H531        H  0.98571527  0.00881892  0.24205526     0.19320
H532        H  0.06710148  0.47262992  0.32225015     0.19320
C533        C  0.72263904  0.24510808  0.26838204    -0.06510
C534        C  0.74940574  0.23989425  0.29179543    -0.17640
C535        C  0.79482601  0.23041428  0.28902559     0.10690
C536        C  0.81268277  0.22363640  0.26242171    -0.06430
C537        C  0.78593164  0.22867783  0.23895399    -0.17670
C538        C  0.74101830  0.23908828  0.24169305     0.10720
S539        S  0.82771157  0.22572665  0.32028952    -0.32630
S540        S  0.70970080  0.24600983  0.21044675    -0.32640
H541        H  0.66538993  0.24631417  0.22261256     0.28730
H542        H  0.87153970  0.22587738  0.30755992     0.28720
H543        H  0.73670858  0.24597314  0.31231374     0.19320
H544        H  0.79862677  0.22245469  0.21848950     0.19320
C545        C  0.45833798  0.48348931  0.25553946    -0.06510
C546        C  0.46089884  0.47787055  0.28356766    -0.17640
C547        C  0.49880207  0.46391371  0.29355263     0.10690
C548        C  0.53522059  0.45584726  0.27531250    -0.06430
C549        C  0.53227913  0.46125941  0.24728071    -0.17670
C550        C  0.49335439  0.47403627  0.23708596     0.10720
S551        S  0.49772692  0.45480026  0.32912062    -0.32630
S552        S  0.48841489  0.47618892  0.20007924    -0.32640
H553        H  0.43981857  0.47982383  0.19966962     0.28730
H554        H  0.54625398  0.45240589  0.33207927     0.28720
H555        H  0.43409785  0.48510206  0.29786852     0.19320
H556        H  0.55801290  0.45313381  0.23272314     0.19320
C557        C  0.27909845  0.19793198  0.27918214    -0.06510
C558        C  0.24029883  0.19956522  0.26125727    -0.17640
C559        C  0.21566665  0.22267921  0.25713919     0.10690
C560        C  0.22916956  0.24544271  0.27141443    -0.06430
C561        C  0.26790183  0.24393751  0.28944719    -0.17670
C562        C  0.29233418  0.22066814  0.29372845     0.10720
S563        S  0.16921750  0.22196424  0.23203354    -0.32630
S564        S  0.33882027  0.22118219  0.31875619    -0.32640
H565        H  0.33124401  0.19670568  0.32805276     0.28730
H566        H  0.17809303  0.24581563  0.22152205     0.28720
H567        H  0.22995693  0.18272095  0.24931650     0.19320
H568        H  0.27899582  0.26112381  0.30067307     0.19320
C569        C  0.58317359  0.10560640  0.27372990    -0.06510
C570        C  0.60681778  0.08257102  0.28103147    -0.17640
C571        C  0.65628693  0.07954670  0.28238295     0.10690
C572        C  0.68513686  0.09976032  0.27580149    -0.06430
C573        C  0.66076562  0.12306802  0.26958587    -0.17670
C574        C  0.61168594  0.12601408  0.26815007     0.10720
S575        S  0.68008070  0.04922927  0.29196550    -0.32630
S576        S  0.58787706  0.15597769  0.25721278    -0.32640
H577        H  0.55408371  0.14509104  0.23956282     0.28730
H578        H  0.71121174  0.05992648  0.31144087     0.28720
H579        H  0.58630441  0.06632314  0.28548369     0.19320
H580        H  0.68001848  0.13966091  0.26481523     0.19320
C581        C  0.15749039  0.05579297  0.24553082    -0.06510
C582        C  0.14242494  0.04978279  0.21801696    -0.17640
C583        C  0.09479449  0.05252435  0.21038078     0.10690
C584        C  0.06231792  0.06299764  0.23010941    -0.06430
C585        C  0.07801890  0.06660463  0.25770524    -0.17670
C586        C  0.12362010  0.06200300  0.26571570     0.10720
S587        S  0.07812070  0.04408551  0.17522984    -0.32630
S588        S  0.13725794  0.06645815  0.30209951    -0.32640
H589        H  0.17282364  0.04750761  0.30117332     0.28730
H590        H  0.03242659  0.03803542  0.18185668     0.28720
H591        H  0.16790025  0.04427865  0.20217749     0.19320
H592        H  0.05601107  0.07591269  0.27322269     0.19320
C593        C  0.97383140  0.34383125  0.40534656    -0.06510
C594        C  0.94879083  0.35786813  0.38597074    -0.17640
C595        C  0.97048425  0.37015211  0.36456129     0.10690
C596        C  0.01917390  0.36797709  0.36167677    -0.06430
C597        C  0.04393988  0.35247849  0.37995275    -0.17670
C598        C  0.02191655  0.34033017  0.40131928     0.10720
S599        S  0.93517834  0.39174809  0.34508609    -0.32630
S600        S  0.05583345  0.32157973  0.42457843    -0.32640
H601        H  0.09974730  0.32631596  0.41359034     0.28730
H602        H  0.94462926  0.37907773  0.31940735     0.28720
H603        H  0.91248275  0.36132174  0.38900967     0.19320
H604        H  0.08107150  0.35024829  0.37792877     0.19320
C605        C  0.99077821  0.35659140  0.18620596    -0.06510
C606        C  0.99751625  0.33016697  0.18024160    -0.17640
C607        C  0.97452953  0.31769102  0.15811480     0.10690
C608        C  0.94290519  0.33167598  0.14231108    -0.06430
C609        C  0.93189669  0.35724299  0.15085982    -0.17670
C610        C  0.95623762  0.37005947  0.17211038     0.10720
S611        S  0.99026815  0.28483076  0.14916333    -0.32630
S612        S  0.94675452  0.40408841  0.17717936    -0.32640
H613        H  0.96252085  0.40609038  0.20474771     0.28730
H614        H  0.95040437  0.27972124  0.13315936     0.28720
H615        H  0.02400692  0.31968048  0.19131198     0.19320
H616        H  0.90866576  0.36845314  0.13864523     0.19320
C617        C  0.79442681  0.34886384  0.36052595    -0.06510
C618        C  0.80410041  0.33284055  0.38201206    -0.17640
C619        C  0.82266758  0.34235811  0.40717891     0.10690
C620        C  0.83505495  0.36836371  0.41066968    -0.06430
C621        C  0.82941241  0.38398659  0.38834492    -0.17670
C622        C  0.80856159  0.37466973  0.36351998     0.10720
S623        S  0.82406810  0.32172059  0.43592923    -0.32630
S624        S  0.79504798  0.39707807  0.33751955    -0.32640
H625        H  0.82234908  0.41699563  0.34842149     0.28730
H626        H  0.81291272  0.29898855  0.42099465     0.28720
H627        H  0.79160749  0.31356987  0.38028825     0.19320
H628        H  0.83790179  0.40389784  0.39118463     0.19320
C629        C  0.77528201  0.35060020  0.18844340    -0.06510
C630        C  0.78043849  0.37687666  0.18514056    -0.17640
C631        C  0.80131285  0.38594489  0.16153807     0.10690
C632        C  0.81469845  0.36843705  0.13979412    -0.06430
C633        C  0.81033992  0.34210256  0.14351297    -0.17670
C634        C  0.79194856  0.33303545  0.16768777     0.10720
S635        S  0.80368352  0.41989446  0.15869844    -0.32630
S636        S  0.78444599  0.29916081  0.16900977    -0.32640
H637        H  0.78863229  0.29852012  0.19797286     0.28730
H638        H  0.85109000  0.41915334  0.15180947     0.28720
H639        H  0.76555612  0.39056376  0.20046868     0.19320
H640        H  0.81870512  0.32830525  0.12675078     0.19320
C641        C  0.45751902  0.32041022  0.41115380    -0.06510
C642        C  0.50096661  0.33073787  0.41683825    -0.17640
C643        C  0.52217758  0.34734539  0.39927247     0.10690
C644        C  0.50097908  0.35301900  0.37360722    -0.06430
C645        C  0.45965384  0.34019938  0.36643935    -0.17670
C646        C  0.43914998  0.32328193  0.38438313     0.10720
S647        S  0.57563497  0.36132848  0.41135970    -0.32630
S648        S  0.39758133  0.30157757  0.36973279    -0.32640
H649        H  0.40145207  0.28366879  0.39032625     0.28730
H650        H  0.58961572  0.34148892  0.42832350     0.28720
H651        H  0.51829721  0.32616444  0.43576270     0.19320
H652        H  0.44451453  0.34205719  0.34608109     0.19320
C653        C  0.47360484  0.34452542  0.13437143    -0.06510
C654        C  0.46341920  0.32913101  0.15634133    -0.17640
C655        C  0.47129717  0.33749983  0.18415630     0.10690
C656        C  0.48752481  0.36235127  0.19040623    -0.06430
C657        C  0.49257984  0.37855460  0.16865147    -0.17670
C658        C  0.48874087  0.36980000  0.14097866     0.10720
S659        S  0.46519015  0.31521719  0.21076999    -0.32630
S660        S  0.50781812  0.39127857  0.11533484    -0.32640
H661        H  0.50427907  0.41404082  0.13203186     0.28730
H662        H  0.44339764  0.29608163  0.19441817     0.28720
H663        H  0.45146500  0.31004644  0.15158655     0.19320
H664        H  0.50586250  0.39738967  0.17336163     0.19320
C665        C  0.32555816  0.35109247  0.40508515    -0.06510
C666        C  0.33931271  0.36584044  0.38356810    -0.17640
C667        C  0.32717598  0.35916415  0.35625016     0.10690
C668        C  0.30198346  0.33700131  0.34973835    -0.06430
C669        C  0.29242870  0.32086954  0.37088054    -0.17670
C670        C  0.30313282  0.32755728  0.39845087     0.10720
S671        S  0.34070137  0.38094277  0.33078735    -0.32630
S672        S  0.28608302  0.30550245  0.42401136    -0.32640
H673        H  0.27736854  0.28450180  0.40561380     0.28730
H674        H  0.36688770  0.36119220  0.31712257     0.28720
H675        H  0.35729011  0.38341192  0.38813346     0.19320
H676        H  0.27185117  0.30426368  0.36603373     0.19320
C677        C  0.35387057  0.37752594  0.13935823    -0.06510
C678        C  0.35779826  0.35122274  0.14420052    -0.17640
C679        C  0.33087578  0.33992704  0.16410899     0.10690
C680        C  0.29806298  0.35510692  0.17931231    -0.06430
C681        C  0.29778389  0.38182210  0.17676882    -0.17670
C682        C  0.32514028  0.39307133  0.15706197     0.10720
S683        S  0.33525645  0.30584165  0.16634957    -0.32630
S684        S  0.31904897  0.42700863  0.15373759    -0.32640
H685        H  0.36152930  0.42945287  0.13993542     0.28730
H686        H  0.33498641  0.30679565  0.19551252     0.28720
H687        H  0.37838049  0.33865775  0.13062770     0.19320
H688        H  0.27373471  0.39395691  0.18910649     0.19320
C689        C  0.60191018  0.34650202  0.04776087    -0.06510
C690        C  0.62120814  0.35372094  0.07360083    -0.17640
C691        C  0.66849563  0.34875185  0.07849242     0.10690
C692        C  0.69474655  0.33499970  0.05787147    -0.06430
C693        C  0.67390136  0.32516551  0.03383606    -0.17670
C694        C  0.62933665  0.33277107  0.02754284     0.10720
S695        S  0.69580192  0.36105992  0.10987939    -0.32630
S696        S  0.61348063  0.32913107  0.49163825    -0.32640
H697        H  0.62595544  0.35421575  0.48675469     0.28730
H698        H  0.65678989  0.37518630  0.12026751     0.28720
H699        H  0.59982157  0.36366312  0.08936919     0.19320
H700        H  0.69503616  0.31549085  0.51763576     0.19320
C701        C  0.19093878  0.34911318  0.48810507    -0.06510
C702        C  0.16114218  0.32879408  0.48778610    -0.17640
C703        C  0.11338315  0.33350130  0.48792670     0.10690
C704        C  0.09581105  0.35906996  0.48785817    -0.06430
C705        C  0.12572582  0.37889372  0.98372954    -0.17670
C706        C  0.17368276  0.37410096  0.98395160     0.10720
S707        S  0.07562967  0.30694806  0.49159178    -0.32630
S708        S  0.21268348  0.40014086  0.98111818    -0.32640
H709        H  0.17847368  0.41895226  0.97582628     0.28730
H710        H  0.10978129  0.28734896  0.48781011     0.28720
H711        H  0.17518237  0.30969238  0.49043041     0.19320
H712        H  0.11187574  0.39827808  0.98333570     0.19320
C713        C  0.49051202  0.05416866  0.34528885    -0.06510
C714        C  0.51100578  0.07788881  0.35000372    -0.17640
C715        C  0.51868864  0.08844194  0.37696914     0.10690
C716        C  0.51120836  0.07413607  0.40075977    -0.06430
C717        C  0.49150685  0.05016191  0.39630020    -0.17670
C718        C  0.48020170  0.04039559  0.36924520     0.10720
S719        S  0.53473439  0.12139719  0.37953304    -0.32630
S720        S  0.45347511  0.00985280  0.36703277    -0.32640
H721        H  0.46703554  0.00415955  0.33958832     0.28730
H722        H  0.51524682  0.12679885  0.40598981     0.28720
H723        H  0.51779972  0.08941923  0.33260537     0.19320
H724        H  0.48605269  0.03859364  0.41387916     0.19320
C725        C  0.49692900  0.07617618  0.09455491    -0.06510
C726        C  0.50478914  0.05399501  0.10936391    -0.17640
C727        C  0.49424760  0.05346405  0.13786889     0.10690
C728        C  0.47742003  0.07589607  0.15244917    -0.06430
C729        C  0.47141896  0.09815930  0.13761180    -0.17670
C730        C  0.47914451  0.09826856  0.10908975     0.10720
S731        S  0.50092625  0.02352023  0.15391576    -0.32630
S732        S  0.46701476  0.12766751  0.09265774    -0.32640
H733        H  0.44599290  0.11605578  0.06912119     0.28730
H734        H  0.51990205  0.53398022  0.17865947     0.28720
H735        H  0.52002893  0.03707987  0.09871440     0.19320
H736        H  0.45774030  0.11552485  0.14817472     0.19320
C737        C  0.77077643  0.13956456  0.41949269    -0.06510
C738        C  0.76507908  0.12216829  0.39640534    -0.17640
C739        C  0.76614858  0.12958384  0.36889645     0.10690
C740        C  0.78404779  0.15338050  0.36283576    -0.06430
C741        C  0.79438066  0.17029298  0.38584617    -0.17670
C742        C  0.78576357  0.16417653  0.41374653     0.10720
S743        S  0.73907410  0.10934618  0.34262352    -0.32630
S744        S  0.79247844  0.18875299  0.44074566    -0.32640
H745        H  0.80738542  0.17204184  0.46097518     0.28730
H746        H  0.73305017  0.08800074  0.35852020     0.28720
H747        H  0.75284852  0.10334472  0.40012640     0.19320
H748        H  0.80865530  0.18863627  0.38203129     0.19320
C749        C  0.74792189  0.13003094  0.11411179    -0.06510
C750        C  0.77560671  0.15063382  0.12247379    -0.17640
C751        C  0.79335638  0.15303286  0.14976955     0.10690
C752        C  0.78267179  0.13475080  0.16920377    -0.06430
C753        C  0.75499137  0.11446526  0.16089571    -0.17670
C754        C  0.73817899  0.11157727  0.13381900     0.10720
S755        S  0.83004414  0.17948026  0.15856787    -0.32630
S756        S  0.70706232  0.08282651  0.12449993    -0.32640
H757        H  0.70082456  0.07464507  0.15149433     0.28730
H758        H  0.82255306  0.17985765  0.18737035     0.28720
H759        H  0.78258747  0.16512599  0.10799405     0.19320
H760        H  0.74921243  0.09975788  0.17533232     0.19320
C761        C  0.53179673  0.50400966  0.02260281    -0.06510
C762        C  0.48699254  0.50052623  0.01163969    -0.17640
C763        C  0.46179083  0.47885718  0.01636857     0.10690
C764        C  0.48221485  0.45876748  0.03115169    -0.06430
C765        C  0.52604494  0.46249868  0.04330253    -0.17670
C766        C  0.55033100  0.48504580  0.03987417     0.10720
S767        S  0.40293575  0.47855356  0.50345948    -0.32630
S768        S  0.60351867  0.48866266  0.05909763    -0.32640
H769        H  0.59303617  0.51414547  0.06802323     0.28730
H770        H  0.38552047  0.46518723  0.52552500     0.28720
H771        H  0.47082806  0.01495939  0.49925289     0.19320
H772        H  0.54184895  0.44762437  0.05524789     0.19320
C773        C  0.72253604  0.21691978  0.02212629    -0.06510
C774        C  0.75321040  0.21925340  0.04486439    -0.17640
C775        C  0.78677105  0.23815135  0.04686345     0.10690
C776        C  0.79037338  0.25560337  0.02568045    -0.06430
C777        C  0.75906013  0.25365663  0.00320420    -0.17670
C778        C  0.72515446  0.23483464  0.00138200     0.10720
S779        S  0.82597891  0.23775197  0.07603934    -0.32630
S780        S  0.68835484  0.23351871  0.47120635    -0.32640
H781        H  0.64725159  0.23165683  0.48651268     0.28730
H782        H  0.86510010  0.24491412  0.06123834     0.28720
H783        H  0.75250360  0.20534516  0.06067641     0.19320
H784        H  0.76065202  0.26712463  0.48699232     0.19320
C785        C  0.05886010  0.12420755  0.36369370    -0.06510
C786        C  0.06760897  0.15006587  0.37020060    -0.17640
C787        C  0.08458877  0.15795300  0.39630618     0.10690
C788        C  0.09398208  0.13929684  0.41555916    -0.06430
C789        C  0.09217886  0.11329496  0.40712689    -0.17670
C790        C  0.07469835  0.10548568  0.38140465     0.10720
S791        S  0.08825338  0.19178481  0.40439189    -0.32630
S792        S  0.06531851  0.07187356  0.37510657    -0.32640
H793        H  0.06909433  0.07160496  0.34619210     0.28730
H794        H  0.08146152  0.19145000  0.43313871     0.28720
H795        H  0.05599608  0.16439953  0.35614665     0.19320
H796        H  0.09957493  0.09887177  0.42191887     0.19320
C797        C  0.06697132  0.13255681  0.12823032    -0.06510
C798        C  0.09253678  0.13059578  0.10573045    -0.17640
C799        C  0.12603570  0.11330471  0.09623726     0.10690
C800        C  0.14133744  0.09728600  0.11658783    -0.06430
C801        C  0.11926067  0.09861404  0.14324401    -0.17670
C802        C  0.07969441  0.11530966  0.14824521     0.10720
S803        S  0.12510998  0.12017677  0.05088812    -0.32630
S804        S  0.04925616  0.11569111  0.18015029    -0.32640
H805        H  0.02566415  0.13917913  0.17662896     0.28730
H806        H  0.12837443  0.10531944  0.03005624     0.28720
H807        H  0.08258705  0.14095233  0.08899144     0.19320
H808        H  0.12946355  0.08515497  0.15847882     0.19320
C809        C  0.23106548  0.09667200  0.36454346    -0.06510
C810        C  0.22357944  0.12120216  0.37628420    -0.17640
C811        C  0.21017577  0.12506496  0.40383751     0.10690
C812        C  0.20183308  0.10346041  0.41963913    -0.06430
C813        C  0.20525349  0.07890760  0.40666001    -0.17670
C814        C  0.22023201  0.07527241  0.37935971     0.10720
S815        S  0.20737647  0.15780420  0.41774213    -0.32630
S816        S  0.22676139  0.04289621  0.36511282    -0.32640
H817        H  0.22760533  0.04890468  0.33717048     0.28730
H818        H  0.20367619  0.16953540  0.39224255     0.28720
H819        H  0.23284366  0.13738409  0.36461006     0.19320
H820        H  0.19796845  0.06227571  0.41810149     0.19320
C821        C  0.20029972  0.13705334  0.22752130    -0.06510
C822        C  0.18874742  0.13609154  0.25587268    -0.17640
C823        C  0.14463082  0.14226979  0.26622042     0.10690
C824        C  0.10899164  0.14839377  0.24786255    -0.06430
C825        C  0.12072153  0.15284345  0.22011257    -0.17670
C826        C  0.16607951  0.14702999  0.20967398     0.10720
S827        S  0.13349686  0.14141313  0.30305594    -0.32630
S828        S  0.17686261  0.15095339  0.17346989    -0.32640
H829        H  0.20633670  0.12928464  0.16950541     0.28730
H830        H  0.17114242  0.12516424  0.30907564     0.28720
H831        H  0.21336918  0.12853491  0.27015108     0.19960
H832        H  0.09380743  0.15889291  0.20601829     0.19320
C833        C  0.98418834  0.46736090  0.02528805    -0.06510
C834        C  0.98122664  0.98208110  0.05071246    -0.17640
C835        C  0.00774218  0.00377010  0.05634616     0.10690
C836        C  0.03806818  0.01218065  0.03591610    -0.06430
C837        C  0.04080161  0.99769960  0.51037192    -0.17670
C838        C  0.01443921  0.47585645  0.50479201     0.10720
S839        S  0.00210398  0.01897938  0.09059794    -0.32630
S840        S  0.02137906  0.46004743  0.47098055    -0.32640
H841        H  0.97355706  0.46156988  0.46501118     0.28730
H842        H  0.05030623  0.02103687  0.09452335     0.28720
H843        H  0.95868683  0.97638083  0.06705872     0.19320
H844        H  0.06298621  0.50373616  0.49401348     0.19320
C845        C  0.92250756  0.07337568  0.03833567    -0.06510
C846        C  0.89252512  0.07513533  0.06112503    -0.17640
C847        C  0.84495928  0.07123053  0.05734458     0.10690
C848        C  0.82738775  0.06589325  0.03042323    -0.06430
C849        C  0.85833789  0.06034986  0.00855269    -0.17670
C850        C  0.90594806  0.06336702  0.01244650     0.10720
S851        S  0.80610288  0.07556006  0.08636380    -0.32630
S852        S  0.94358926  0.05578744  0.48320754    -0.32640
H853        H  0.98198823  0.04890962  0.49950588     0.28730
H854        H  0.84003931  0.08041376  0.10682514     0.28720
H855        H  0.90543047  0.08197457  0.08117238     0.19320
H856        H  0.84513869  0.05571838  0.48790303     0.19320
C857        C  0.32431047  0.15316682  0.51039423    -0.06510
C858        C  0.35269446  0.16685417  0.02916899    -0.17640
C859        C  0.40089870  0.16751250  0.02506992     0.10690
C860        C  0.42123668  0.15379134  0.00187594    -0.06430
C861        C  0.39202930  0.14224753  0.48191193    -0.17670
C862        C  0.34409991  0.14196623  0.48580706     0.10720
S863        S  0.43422149  0.18472350  0.05110087    -0.32630
S864        S  0.31069027  0.12438797  0.46027010    -0.32640
H865        H  0.28115875  0.14557388  0.45606753     0.28730
H866        H  0.47007303  0.16623494  0.05233768     0.28720
H867        H  0.33757395  0.17591270  0.04787431     0.19320
H868        H  0.40707708  0.13176440  0.46398604     0.19320
C869        C  0.26472183  0.26212268  0.51949866    -0.06510
C870        C  0.24051098  0.25474187  0.49511309    -0.17640
C871        C  0.19987656  0.24098111  0.49598532     0.10690
C872        C  0.18345947  0.23331314  0.52169132    -0.06430
C873        C  0.20432586  0.24286036  0.04615286    -0.17670
C874        C  0.24435784  0.25733826  0.04552809     0.10720
S875        S  0.17125617  0.23300272  0.46349495    -0.32630
S876        S  0.26845396  0.26856935  0.07847299    -0.32640
H877        H  0.23070137  0.26286633  0.09527298     0.28730
H878        H  0.12737068  0.22961143  0.47527685     0.28720
H879        H  0.25337894  0.25945322  0.47499740     0.19320
H880        H  0.19160387  0.23709882  0.06589917     0.19320
O881        O  0.13068418  0.20736669  0.54478717    -0.75680
O882        O  0.16687816  0.19229352  0.00483877    -0.54580
C883        C  0.15687246  0.20989773  0.02343484     0.78050
O884        O  0.19135494  0.07552414  0.58842639    -0.60280
O885        O  0.11950586  0.06413183  0.59483788    -0.53310
C886        C  0.15614853  0.07420241  0.60469746     0.70070
O887        O  0.27141782  0.13382601  0.53956992    -0.74840
O888        O  0.24297073  0.15565798  0.00334198    -0.55400
C889        C  0.27640700  0.14757292  0.01847276     0.76070
O890        O  0.02028222  0.15959424  0.60026757    -0.59980
O891        O  0.00859093  0.11791049  0.60304919    -0.53100
C892        C  0.02161308  0.13886209  0.61522561     0.72660
Zr893      Zr  0.08770317  0.17300357  0.56497579     2.54710
O894        O  0.09548669  0.19779373  0.60872852    -0.80550
O895        O  0.03714127  0.20949453  0.55468374    -0.93960
Zr896      Zr  0.20695007  0.11674134  0.56528171     2.64680
O897        O  0.23086141  0.12837278  0.61269547    -0.98920
O898        O  0.28949128  0.10659477  0.57036559    -0.80980
O899        O  0.17106596  0.15930740  0.55083281    -0.84340
O900        O  0.15011748  0.14985756  0.58338783    -2.19050
O901        O  0.97473402  0.10108504  0.01985007    -0.67730
O902        O  0.99356543  0.08426145  0.56111731    -0.52290
C903        C  0.96649245  0.08700058  0.54011456     0.71040
O904        O  0.16765895  0.08693549  0.95947064    -0.60630
O905        O  0.19683310  0.12668428  0.96235951    -0.52610
C906        C  0.18821393  0.10575067  0.94906938     0.72850
O907        O  0.09500911  0.04013410  0.02035246    -0.72030
O908        O  0.05198738  0.05385200  0.55809512    -0.50710
C909        C  0.06405260  0.03669659  0.53895140     0.74230
O910        O  0.06203372  0.13315190  0.95807594    -0.67360
O911        O  0.12697480  0.15651841  0.95762571    -0.54560
C912        C  0.09380825  0.14451967  0.94550719     0.72610
Zr913      Zr  0.03537321  0.12802951  0.00441325     2.77540
O914        O  0.97330604  0.11934852  0.97107412    -0.98110
O915        O  0.98708742  0.16697048  0.00667831    -0.78930
Zr916      Zr  0.14244957  0.07474554  0.00526127     2.70070
O917        O  0.13323770  0.04108121  0.96919975    -0.80180
O918        O  0.21460648  0.05060529  0.01215483    -0.99260
Zr919      Zr  0.16095210  0.14696916  0.00215596     2.21500
Zr920      Zr  0.07223768  0.09839998  0.57126894     2.11130
O921        O  0.06411780  0.08870443  0.02103008    -2.47950
O922        O  0.10982628  0.11355251  0.98759444    -0.79970
O923        O  0.03711017  0.13730448  0.55266750    -0.72160
O924        O  0.19880901  0.10778863  0.01607977    -2.33120
O925        O  0.08466928  0.16231398  0.01615950    -2.29330
O926        O  0.15472312  0.07746270  0.55509298    -0.73920
H927        H  0.15912889  0.15696578  0.60159014     0.78070
H928        H  0.22796120  0.10373657  0.00678145     0.79160
H929        H  0.04296906  0.07593240  0.01448700     0.81390
H930        H  0.07582079  0.17704771  0.00597147     0.78990
H931        H  0.29115986  0.08788735  0.57213137     0.42030
H932        H  0.20490811  0.03281047  0.51373392     0.41000
H933        H  0.10314204  0.04530791  0.96032827     0.40680
H934        H  0.98609500  0.10566666  0.95810998     0.38610
H935        H  0.96336053  0.16401715  0.02087312     0.41740
H936        H  0.04205275  0.21255996  0.53485239     0.36530
H937        H  0.12420151  0.20738709  0.60653645     0.42640
H938        H  0.24653632  0.11287291  0.61952453     0.39060
H939        H  0.97060071  0.13461370  0.95990638     0.43980
H940        H  0.05045438  0.22438760  0.56495578     0.42700
H941        H  0.25597967  0.14061853  0.61077686     0.42840
H942        H  0.23059276  0.05049750  0.99400424     0.43190
O943        O  0.50322253  0.16161858  0.50386757    -0.75680
O944        O  0.47680874  0.12079540  0.49865911    -0.54580
C945        C  0.47057626  0.14518508  0.50115960     0.78050
O946        O  0.70440895  0.12393249  0.93658307    -0.60280
O947        O  0.75424745  0.13667078  0.97064893    -0.53310
C948        C  0.74246344  0.13345157  0.94452574     0.70070
O949        O  0.57453854  0.09045213  0.92485842    -0.74840
O950        O  0.51500230  0.07937839  0.95225177    -0.55400
C951        C  0.53411173  0.08176169  0.92802138     0.76070
O952        O  0.65277197  0.19237890  0.51352070    -0.59980
O953        O  0.72356121  0.17243358  0.51961379    -0.53100
C954        C  0.69739093  0.19249773  0.51802982     0.72660
Zr955      Zr  0.58943093  0.16068914  0.50625237     2.54710
O956        O  0.57688436  0.18613632  0.96604157    -0.80550
O957        O  0.56298948  0.19516484  0.53871967    -0.93960
Zr958      Zr  0.63639136  0.10662176  0.95295219     2.64680
O959        O  0.61713507  0.13659509  0.91754501    -0.98920
O960        O  0.67184729  0.07463680  0.92060196    -0.80980
O961        O  0.57049173  0.12505485  0.47564199    -0.84340
O962        O  0.65482655  0.14256566  0.48216644    -2.19050
O963        O  0.68003967  0.12317423  0.59026213    -0.67730
O964        O  0.74081992  0.13357952  0.56351823    -0.52290
C965        C  0.72200263  0.12939735  0.58729829     0.71040
O966        O  0.60066457  0.02900448  0.51875295    -0.60630
O967        O  0.52983492  0.04651696  0.50799406    -0.52610
C968        C  0.55598119  0.02797727  0.51610772     0.72850
O969        O  0.74724985  0.05835060  0.52151237    -0.72030
O970        O  0.77538351  0.09863570  0.52039257    -0.50710
C971        C  0.78007168  0.07456660  0.52351209     0.74230
O972        O  0.56542784  0.07669159  0.56904067    -0.67360
O973        O  0.50057739  0.08429063  0.54520560    -0.54560
C974        C  0.52135224  0.07849139  0.56788118     0.72610
Zr975      Zr  0.61183739  0.11366870  0.56455497     2.77540
O976        O  0.59541846  0.10606010  0.61303653    -0.98110
O977        O  0.56766804  0.14970088  0.58602606    -0.78930
Zr978      Zr  0.66307286  0.05960159  0.51188005     2.70070
O979        O  0.68507027  0.03009310  0.54718946    -0.80180
O980        O  0.68550929  0.02930277  0.97404217    -0.99260
Zr981      Zr  0.54175597  0.09116222  0.50117880     2.21500
Zr982      Zr  0.71046644  0.12765381  0.51479233     2.11130
O983        O  0.67946355  0.09535755  0.54226117    -2.47950
O984        O  0.59714152  0.07798579  0.53453058    -0.79970
O985        O  0.64403033  0.14606323  0.53918888    -0.72160
O986        O  0.60853069  0.07281548  0.47795611    -2.33120
O987        O  0.55762754  0.12772163  0.53193032    -2.29330
O988        O  0.69315012  0.09169735  0.48445158    -0.73920
H989        H  0.66759410  0.15578619  0.97157675     0.78070
H990        H  0.60042366  0.05846820  0.96572997     0.79160
H991        H  0.70148678  0.08932068  0.55568904     0.81390
H992        H  0.52988687  0.13354325  0.54177201     0.78990
H993        H  0.65735870  0.05844747  0.92488590     0.42030
H994        H  0.71375127  0.03641470  0.96617143     0.41000
H995        H  0.67735117  0.03952420  0.56497722     0.40680
H996        H  0.60851646  0.08881158  0.61616187     0.38610
H997        H  0.59157842  0.16142285  0.59337262     0.41740
H998        H  0.54417442  0.18687408  0.55258137     0.36530
H999        H  0.55584797  0.17595632  0.95391273     0.42640
H1000       H  0.63036368  0.15299016  0.92421754     0.39060
H1001       H  0.61475555  0.11785102  0.62443772     0.43980
H1002       H  0.54022267  0.20529782  0.52813129     0.42700
H1003       H  0.63630062  0.13085381  0.90125111     0.42840
H1004       H  0.69692450  0.01398309  0.48339487     0.43190
O1005       O  0.33159266  0.28270940  0.53881614    -0.75680
O1006       O  0.31881018  0.28378077  0.99258125    -0.54580
C1007       C  0.30818567  0.27657698  0.01675981     0.78050
O1008       O  0.33008500  0.38608629  0.59449667    -0.60280
O1009       O  0.40794064  0.38401583  0.60276136    -0.53310
C1010       C  0.36514049  0.38494460  0.61090870     0.70070
O1011       O  0.24886270  0.35791128  0.52026631    -0.74840
O1012       O  0.26532884  0.32978599  0.98349841    -0.55400
C1013       C  0.23800122  0.34494023  0.99798259     0.76070
O1014       O  0.43577255  0.31777503  0.59850213    -0.59980
O1015       O  0.48675423  0.34612192  0.58642463    -0.53100
C1016       C  0.46572729  0.33498039  0.60501298     0.72660
Zr1017     Zr  0.40312955  0.30486254  0.55177395     2.54710
O1018       O  0.38682136  0.27429911  0.58645733    -0.80550
O1019       O  0.46026988  0.27088211  0.53995148    -0.93960
Zr1020     Zr  0.31694181  0.36657332  0.54836034     2.64680
O1021       O  0.26597335  0.34356196  0.57782677    -0.98920
O1022       O  0.26951429  0.40571718  0.55275228    -0.80980
O1023       O  0.33552654  0.32411172  0.53236393    -0.84340
O1024       O  0.38343673  0.34713946  0.56702186    -2.19050
O1025       O  0.53331286  0.33130036  0.52985222    -0.67730
O1026       O  0.52995768  0.37010925  0.55250875    -0.52290
C1027       C  0.55247733  0.35007108  0.54275211     0.71040
O1028       O  0.36737488  0.37559731  0.94077774    -0.60630
O1029       O  0.30995995  0.35072767  0.95213219    -0.52610
C1030       C  0.33424665  0.36032727  0.93402507     0.72850
O1031       O  0.43922840  0.42654210  0.50827902    -0.72030
O1032       O  0.46649712  0.41883917  0.55161866    -0.50710
C1033       C  0.46104806  0.43313548  0.53071802     0.74230
O1034       O  0.45647345  0.30245299  0.95536496    -0.67360
O1035       O  0.38813800  0.31364310  0.93833334    -0.54560
C1036       C  0.43221687  0.30982215  0.93510386     0.72610
Zr1037     Zr  0.47822798  0.33210448  0.99279576     2.77540
O1038       O  0.52782516  0.36029122  0.96810975    -0.98110
O1039       O  0.53343715  0.29824245  0.97757128    -0.78930
Zr1040     Zr  0.39266894  0.39252863  0.98761956     2.70070
O1041       O  0.42839470  0.41753511  0.95281713    -0.80180
O1042       O  0.32786741  0.42327346  0.98580274    -0.99260
Zr1043     Zr  0.34885393  0.32485370  0.98371640     2.21500
Zr1044     Zr  0.44578845  0.37430971  0.55708472     2.11130
O1045       O  0.46010295  0.37499198  0.50849017    -2.47950
O1046       O  0.41217774  0.35024358  0.97179645    -0.79970
O1047       O  0.46409779  0.33137987  0.54073297    -0.72160
O1048       O  0.33086630  0.36791629  0.00049577    -2.33120
O1049       O  0.41617028  0.30491205  0.00320831    -2.29330
O1050       O  0.37848445  0.39328064  0.53663268    -0.73920
H1051       H  0.37596178  0.34486016  0.58595481     0.78070
H1052       H  0.30436951  0.37617132  0.99222787     0.79160
H1053       H  0.48601452  0.38580551  0.00600820     0.81390
H1054       H  0.42052841  0.28755610  0.99578656     0.78990
H1055       H  0.29204726  0.41957367  0.55255514     0.42030
H1056       H  0.32699669  0.43197752  0.50450380     0.41000
H1057       H  0.44761562  0.40501585  0.94146435     0.40680
H1058       H  0.50659342  0.37316941  0.96014594     0.38610
H1059       H  0.53171568  0.28553563  0.49195832     0.41740
H1060       H  0.44240479  0.25504223  0.53933999     0.36530
H1061       H  0.36619663  0.28380104  0.60003423     0.42640
H1062       H  0.28727657  0.33405263  0.58998665     0.39060
H1063       H  0.54630821  0.36988596  0.98220357     0.43980
H1064       H  0.47992386  0.26985506  0.55673989     0.42700
H1065       H  0.25104689  0.35692080  0.59034627     0.42840
H1066       H  0.33861621  0.43635033  0.97344706     0.43190
O1067       O  0.93742352  0.43660086  0.54497784    -0.75680
O1068       O  0.95790585  0.42875168  0.99981377    -0.54580
C1069       C  0.95804223  0.44274124  0.02275857     0.78050
O1070       O  0.96958778  0.32978356  0.59690979    -0.60280
O1071       O  0.89333844  0.32171318  0.60430407    -0.53310
C1072       C  0.93520794  0.32521210  0.61267466     0.70070
O1073       O  0.04242951  0.35498156  0.52228242    -0.74840
O1074       O  0.01950906  0.37785610  0.98533162    -0.55400
C1075       C  0.04976299  0.36512516  0.99923291     0.76070
O1076       O  0.85554162  0.39355862  0.60696805    -0.59980
O1077       O  0.80959661  0.36239091  0.59185423    -0.53100
C1078       C  0.82705484  0.37580989  0.61158427     0.72660
Zr1079     Zr  0.88655336  0.40441484  0.56128178     2.54710
O1080       O  0.92030507  0.42965501  0.59955322    -0.80550
O1081       O  0.82351996  0.43626298  0.56021706    -0.93960
Zr1082     Zr  0.97804130  0.34539173  0.55053999     2.64680
O1083       O  0.03219306  0.36984058  0.57928825    -0.98920
O1084       O  0.02740358  0.30703024  0.55208005    -0.80980
O1085       O  0.95436016  0.38710015  0.53793011    -0.84340
O1086       O  0.91206246  0.36319868  0.57308712    -2.19050
O1087       O  0.75110796  0.35482003  0.53436910    -0.67730
O1088       O  0.77345276  0.32802512  0.56790692    -0.52290
C1089       C  0.74293314  0.33981420  0.55392561     0.71040
O1090       O  0.93465780  0.32587097  0.94466015    -0.60630
O1091       O  0.96191359  0.36653292  0.94665187    -0.52610
C1092       C  0.95551112  0.34489337  0.93409956     0.72850
O1093       O  0.84399051  0.28259045  0.50449211    -0.72030
O1094       O  0.82750636  0.28996929  0.55049588    -0.50710
C1095       C  0.82350099  0.27705529  0.52714712     0.74230
O1096       O  0.81355082  0.37585833  0.95613983    -0.67360
O1097       O  0.88744602  0.38649685  0.94582524    -0.54560
C1098       C  0.84599574  0.37910010  0.93890060     0.72610
Zr1099     Zr  0.80798224  0.37378261  0.00506523     2.77540
O1100       O  0.73630528  0.36678510  0.97914694    -0.98110
O1101       O  0.77177192  0.41627202  0.01020908    -0.78930
Zr1102     Zr  0.90101000  0.31401729  0.99079050     2.70070
O1103       O  0.89484259  0.28236699  0.95203469    -0.80180
O1104       O  0.96476927  0.28491376  0.50213455    -0.99260
Zr1105     Zr  0.93498557  0.38425753  0.98973727     2.21500
Zr1106     Zr  0.85359888  0.33317920  0.56182978     2.11130
O1107       O  0.83252932  0.33152830  0.51382345    -2.47950
O1108       O  0.87432300  0.35569066  0.98200098    -0.79970
O1109       O  0.82674892  0.37533161  0.55191322    -0.72160
O1110       O  0.95972781  0.34244813  0.50250023    -2.33120
O1111       O  0.86807346  0.40336881  0.01299314    -2.29330
O1112       O  0.92066072  0.31495293  0.53895403    -0.73920
H1113       H  0.91873524  0.36586360  0.59244189     0.78070
H1114       H  0.98522954  0.33544431  0.99139686     0.79160
H1115       H  0.80532131  0.32172733  0.50984180     0.81390
H1116       H  0.86048422  0.42007142  0.00646764     0.78990
H1117       H  0.00629002  0.29346477  0.55707049     0.42030
H1118       H  0.94948978  0.26915410  0.50714501     0.41000
H1119       H  0.86882542  0.27133865  0.95628963     0.40680
H1120       H  0.73145420  0.34820780  0.97944534     0.38610
H1121       H  0.74723719  0.41468566  0.52429621     0.41740
H1122       H  0.83916560  0.45250972  0.55767559     0.36530
H1123       H  0.94536983  0.41846169  0.60670866     0.42640
H1124       H  0.01269201  0.37833183  0.59413671     0.39060
H1125       H  0.71124245  0.37476361  0.99096249     0.43980
H1126       H  0.81180587  0.43782396  0.57952325     0.42700
H1127       H  0.05105155  0.35685027  0.58879577     0.42840
H1128       H  0.97988661  0.28028609  0.98408775     0.43190
O1129       O  0.27698065  0.12893916  0.70383365    -0.75680
O1130       O  0.25036576  0.10181560  0.73084538    -0.54580
C1131       C  0.24337484  0.12198726  0.71869895     0.78050
O1132       O  0.38623591  0.50708905  0.75634945    -0.60280
O1133       O  0.45036892  0.02304278  0.73738208    -0.53310
C1134       C  0.42896087  0.50528741  0.74840822     0.70070
O1135       O  0.23884637  0.04396273  0.74370561    -0.74840
O1136       O  0.21578114  0.08160160  0.76625302    -0.55400
C1137       C  0.20726450  0.06042685  0.75238383     0.76070
O1138       O  0.41221527  0.08654028  0.67824869    -0.59980
O1139       O  0.47221181  0.06871815  0.70228956    -0.53100
C1140       C  0.45300164  0.07644019  0.67966648     0.72660
Zr1141     Zr  0.34987816  0.10142672  0.70760038     2.54710
O1142       O  0.30874858  0.08079016  0.66886241    -0.80550
O1143       O  0.37251762  0.13649285  0.67999510    -0.93960
Zr1144     Zr  0.32356604  0.03925490  0.75049236     2.64680
O1145       O  0.31630677  0.51346594  0.70731508    -0.98920
O1146       O  0.28622251  0.50583273  0.77476499    -0.80980
O1147       O  0.29865413  0.07938831  0.73510085    -0.84340
O1148       O  0.37666150  0.06030186  0.72239533    -2.19050
O1149       O  0.50045722  0.12407230  0.77564319    -0.67730
O1150       O  0.51832215  0.08430978  0.75632080    -0.52290
C1151       C  0.53053837  0.10530395  0.76827450     0.71040
O1152       O  0.29943077  0.08206025  0.84330916    -0.60630
O1153       O  0.24880990  0.10650914  0.81916956    -0.52610
C1154       C  0.26097519  0.09453560  0.84050094     0.72850
O1155       O  0.42835344  0.04107631  0.81614014    -0.72030
O1156       O  0.48833164  0.05536450  0.79416730    -0.50710
C1157       C  0.46998015  0.04801566  0.81682490     0.74230
O1158       O  0.34912807  0.17011662  0.78077653    -0.67360
O1159       O  0.27680776  0.15296186  0.78044488    -0.54560
C1160       C  0.30373250  0.17218851  0.78112561     0.72610
Zr1161     Zr  0.41062091  0.13459843  0.77510764     2.77540
O1162       O  0.43349762  0.15813732  0.81751019    -0.98110
O1163       O  0.44178390  0.16718274  0.74693094    -0.78930
Zr1164     Zr  0.37251870  0.07539099  0.81897016     2.70070
O1165       O  0.41241338  0.10292455  0.85286868    -0.80180
O1166       O  0.37145397  0.05141385  0.86084805    -0.99260
Zr1167     Zr  0.28587435  0.10631856  0.77513325     2.21500
Zr1168     Zr  0.44381653  0.06709577  0.75111940     2.11130
O1169       O  0.42971100  0.09452772  0.79185783    -2.47950
O1170       O  0.35225966  0.11580948  0.80302103    -0.79970
O1171       O  0.42003896  0.10759897  0.73427889    -0.72160
O1172       O  0.30735729  0.06585521  0.79115479    -2.33120
O1173       O  0.34132957  0.12776276  0.74815824    -2.29330
O1174       O  0.38848021  0.04742176  0.77935113    -0.73920
H1175       H  0.38462916  0.04910502  0.70648822     0.78070
H1176       H  0.28251964  0.05833082  0.80095392     0.79160
H1177       H  0.45652626  0.09691360  0.80350051     0.81390
H1178       H  0.32981386  0.14353674  0.74106154     0.78990
H1179       H  0.26294279  0.51478720  0.78713181     0.42030
H1180       H  0.34430925  0.04034574  0.85871699     0.41000
H1181       H  0.38722595  0.11316475  0.86242776     0.40680
H1182       H  0.45480748  0.14621711  0.82692700     0.38610
H1183       H  0.44833028  0.15826121  0.72870680     0.41740
H1184       H  0.36318117  0.15210285  0.69126460     0.36530
H1185       H  0.29736792  0.06488801  0.67625595     0.42640
H1186       H  0.34748421  0.50544284  0.70401390     0.39060
H1187       H  0.45382580  0.17152041  0.81112164     0.43980
H1188       H  0.35072056  0.13606228  0.66409240     0.42700
H1189       H  0.29668532  0.49920384  0.71219456     0.42840
H1190       H  0.36303588  0.06397403  0.87617505     0.43190
O1191       O  0.98348486  0.07144902  0.70914866    -0.75680
O1192       O  0.01526593  0.09959917  0.73609080    -0.54580
C1193       C  0.01889198  0.07822662  0.72355603     0.78050
O1194       O  0.88461004  0.19980391  0.76077274    -0.60280
O1195       O  0.81423919  0.18095424  0.75977975    -0.53310
C1196       C  0.83989337  0.20019072  0.76016818     0.70070
O1197       O  0.02824623  0.16089640  0.75015033    -0.74840
O1198       O  0.05288973  0.12390844  0.76916671    -0.55400
C1199       C  0.06021931  0.14450461  0.75641480     0.76070
O1200       O  0.84829137  0.11780792  0.68976739    -0.59980
O1201       O  0.79556240  0.13933345  0.71849534    -0.53100
C1202       C  0.81064522  0.13097828  0.69430289     0.72660
Zr1203     Zr  0.91200116  0.10048077  0.71593359     2.54710
O1204       O  0.94323951  0.11537821  0.67312647    -0.80550
O1205       O  0.88096793  0.06338787  0.69070309    -0.93960
Zr1206     Zr  0.94496530  0.16573030  0.76050365     2.64680
O1207       O  0.95580994  0.18866949  0.71848410    -0.98920
O1208       O  0.98176733  0.19915464  0.78886753    -0.80980
O1209       O  0.96707550  0.12442168  0.74198477    -0.84340
O1210       O  0.88910734  0.14259267  0.73459514    -2.19050
O1211       O  0.76866903  0.08075462  0.78139695    -0.67730
O1212       O  0.75342834  0.12020166  0.76600588    -0.52290
C1213       C  0.73923664  0.09930735  0.77436357     0.71040
O1214       O  0.98205880  0.12915585  0.84971069    -0.60630
O1215       O  0.03182691  0.10566277  0.82140577    -0.52610
C1216       C  0.02210385  0.11885279  0.84373244     0.72850
O1217       O  0.84424754  0.16588909  0.83375856    -0.72030
O1218       O  0.78449094  0.14930710  0.81137071    -0.50710
C1219       C  0.80324192  0.15794718  0.83433670     0.74230
O1220       O  0.92210010  0.03741457  0.78755912    -0.67360
O1221       O  0.99378656  0.05539368  0.78876768    -0.54560
C1222       C  0.96734837  0.03617019  0.78871492     0.72610
Zr1223     Zr  0.85945124  0.07159529  0.78399166     2.77540
O1224       O  0.83642549  0.05303002  0.82685727    -0.98110
O1225       O  0.83046925  0.03475170  0.75735601    -0.78930
Zr1226     Zr  0.90426380  0.13348195  0.83009043     2.70070
O1227       O  0.87101632  0.10745033  0.86485450    -0.80180
O1228       O  0.91675223  0.15927080  0.87282062    -0.99260
Zr1229     Zr  0.98407243  0.10059457  0.78115750     2.21500
Zr1230     Zr  0.82674878  0.13770753  0.76628173     2.11130
O1231       O  0.84437632  0.11217259  0.80451717    -2.47950
O1232       O  0.92105082  0.09207966  0.81088586    -0.79970
O1233       O  0.84534024  0.09644481  0.74518736    -0.72160
O1234       O  0.96493074  0.14199128  0.79956576    -2.33120
O1235       O  0.92622894  0.07691284  0.75534093    -2.29330
O1236       O  0.88425550  0.15997559  0.79265287    -0.73920
H1237       H  0.87970986  0.15342987  0.71993059     0.78070
H1238       H  0.99085856  0.15048372  0.80824842     0.79160
H1239       H  0.81902843  0.10956566  0.81673986     0.81390
H1240       H  0.93762039  0.06051760  0.74796212     0.78990
H1241       H  0.96190176  0.20147955  0.80558310     0.42030
H1242       H  0.91293721  0.17721440  0.86765466     0.41000
H1243       H  0.89799008  0.09799412  0.87247687     0.40680
H1244       H  0.80205260  0.05357050  0.82637983     0.38610
H1245       H  0.84339242  0.03617866  0.73852999     0.41740
H1246       H  0.89879944  0.04864770  0.69771298     0.36530
H1247       H  0.93662623  0.13402435  0.67428103     0.42640
H1248       H  0.92440060  0.19089968  0.71043378     0.39060
H1249       H  0.84515318  0.03468809  0.82412676     0.43980
H1250       H  0.89210989  0.06466251  0.67144342     0.42700
H1251       H  0.96426656  0.20605049  0.72525322     0.42840
H1252       H  0.88969678  0.15638042  0.88472055     0.43190
O1253       O  0.21927125  0.35507820  0.68905294    -0.75680
O1254       O  0.26644754  0.33131141  0.71617433    -0.54580
C1255       C  0.25887477  0.34492060  0.69485522     0.78050
O1256       O  0.12836306  0.44235516  0.77509424    -0.60280
O1257       O  0.05576058  0.42605006  0.77177412    -0.53310
C1258       C  0.08326453  0.44467619  0.77469241     0.70070
O1259       O  0.27617272  0.39991037  0.77197519    -0.74840
O1260       O  0.26829346  0.36747249  0.74336657    -0.55400
C1261       C  0.29442028  0.37999510  0.75908176     0.76070
O1262       O  0.06673089  0.36874647  0.69077031    -0.59980
O1263       O  0.02009922  0.37494188  0.72856937    -0.53100
C1264       C  0.02721890  0.36907403  0.70264411     0.72660
Zr1265     Zr  0.14205667  0.35811530  0.70826490     2.54710
O1266       O  0.14491229  0.38742574  0.67092897    -0.80550
O1267       O  0.13444687  0.32253059  0.67415689    -0.93960
Zr1268     Zr  0.18915333  0.40720711  0.76866086     2.64680
O1269       O  0.21351095  0.43215763  0.73043910    -0.98920
O1270       O  0.21891472  0.43829968  0.80289006    -0.80980
O1271       O  0.20307709  0.37134958  0.73706768    -0.84340
O1272       O  0.12572461  0.39465724  0.73912931    -2.19050
O1273       O  0.01106601  0.32168964  0.76311252    -0.67730
O1274       O  0.99646511  0.36417812  0.77425699    -0.52290
C1275       C  0.98309951  0.34182749  0.76813435     0.71040
O1276       O  0.22665404  0.34441411  0.83801412    -0.60630
O1277       O  0.27560880  0.33248048  0.80225899    -0.52610
C1278       C  0.26642875  0.33744293  0.82818615     0.72850
O1279       O  0.08889675  0.38329951  0.84353954    -0.72030
O1280       O  0.02812009  0.38136648  0.81498823    -0.50710
C1281       C  0.04596143  0.37939420  0.83920200     0.74230
O1282       O  0.16162585  0.27466691  0.76790699    -0.67360
O1283       O  0.23540964  0.28902070  0.76266577    -0.54560
C1284       C  0.20682306  0.27125669  0.76685264     0.72610
Zr1285     Zr  0.09946005  0.30953376  0.76349455     2.77540
O1286       O  0.06696212  0.28119653  0.79628358    -0.98110
O1287       O  0.07519767  0.28062603  0.72544143    -0.78930
Zr1288     Zr  0.15046036  0.35630883  0.82319704     2.70070
O1289       O  0.12311376  0.31915275  0.84575850    -0.80180
O1290       O  0.17541126  0.37110927  0.86954917    -0.99260
Zr1291     Zr  0.22466173  0.33457952  0.76119312     2.21500
Zr1292     Zr  0.06873473  0.38088897  0.77028264     2.11130
O1293       O  0.08624213  0.34411635  0.79599581    -2.47950
O1294       O  0.16495978  0.32148197  0.79102633    -0.79970
O1295       O  0.08346560  0.34587263  0.73830319    -0.72160
O1296       O  0.20887851  0.37028149  0.79366190    -2.33120
O1297       O  0.16057280  0.32100010  0.73302934    -2.29330
O1298       O  0.13102554  0.39399317  0.79966160    -0.73920
H1299       H  0.11388327  0.40874639  0.72883027     0.78070
H1300       H  0.23538998  0.37546364  0.80449144     0.79160
H1301       H  0.06121689  0.33913878  0.80759943     0.81390
H1302       H  0.17000034  0.30675561  0.72061394     0.78990
H1303       H  0.22559086  0.42836559  0.81939573     0.42030
H1304       H  0.16111054  0.38835091  0.87304795     0.41000
H1305       H  0.15018074  0.31305440  0.85650924     0.40680
H1306       H  0.04776506  0.29248350  0.80905600     0.38610
H1307       H  0.08753663  0.28793617  0.70856315     0.41740
H1308       H  0.15739741  0.32561999  0.65956570     0.36530
H1309       H  0.16437615  0.40143477  0.67837547     0.42640
H1310       H  0.18423829  0.43924424  0.72278051     0.39060
H1311       H  0.04416200  0.27117876  0.78526697     0.43980
H1312       H  0.10394009  0.32551354  0.66522090     0.42700
H1313       H  0.22866449  0.44707442  0.73954088     0.42840
H1314       H  0.15979183  0.36023383  0.88258571     0.43190
O1315       O  0.55705107  0.37559367  0.70974650    -0.75680
O1316       O  0.50400121  0.36545290  0.74022352    -0.54580
C1317       C  0.51653236  0.36867021  0.71513420     0.78050
O1318       O  0.64985381  0.26831236  0.77244464    -0.60280
O1319       O  0.72011762  0.28760545  0.77344699    -0.53310
C1320       C  0.69469985  0.26824393  0.77181561     0.70070
O1321       O  0.50106975  0.31350380  0.76965453    -0.74840
O1322       O  0.49275006  0.34523619  0.80115857    -0.55400
C1323       C  0.47532033  0.33137156  0.78238116     0.76070
O1324       O  0.69870653  0.35227546  0.70196281    -0.59980
O1325       O  0.74939447  0.33216140  0.73019706    -0.53100
C1326       C  0.73927479  0.34375948  0.70790765     0.72660
Zr1327     Zr  0.62254234  0.34936714  0.72078645     2.54710
O1328       O  0.60128772  0.31025690  0.69505313    -0.80550
O1329       O  0.62334255  0.35924536  0.67193179    -0.93960
Zr1330     Zr  0.58757845  0.30166012  0.77737832     2.64680
O1331       O  0.55920984  0.26780704  0.74588743    -0.98920
O1332       O  0.55932799  0.27632696  0.81430151    -0.80980
O1333       O  0.56408732  0.33605910  0.75061443    -0.84340
O1334       O  0.64710793  0.31450643  0.74665922    -2.19050
O1335       O  0.76214069  0.39027051  0.77611637    -0.67730
O1336       O  0.77931923  0.34774095  0.76801597    -0.52290
C1337       C  0.79148828  0.37049754  0.77231345     0.71040
O1338       O  0.56776571  0.37386026  0.85637624    -0.60630
O1339       O  0.50740053  0.36987390  0.82792544    -0.52610
C1340       C  0.52590037  0.36735670  0.85198833     0.72850
O1341       O  0.71525158  0.34625069  0.85367319    -0.72030
O1342       O  0.76065082  0.33436068  0.81639995    -0.50710
C1343       C  0.75486028  0.34179324  0.84225497     0.74230
O1344       O  0.60727733  0.43227720  0.77748155    -0.67360
O1345       O  0.53716724  0.41457062  0.78640987    -0.54560
C1346       C  0.56261249  0.43315990  0.78111694     0.72610
Zr1347     Zr  0.67237256  0.40006631  0.77811107     2.77540
O1348       O  0.69877303  0.43129654  0.81332595    -0.98110
O1349       O  0.69607123  0.42792268  0.74227515    -0.78930
Zr1350     Zr  0.63716575  0.35207586  0.83710338     2.70070
O1351       O  0.65751076  0.37968583  0.87709707    -0.80180
O1352       O  0.62226618  0.31828364  0.86834131    -0.99260
Zr1353     Zr  0.55050458  0.37045184  0.78395243     2.21500
Zr1354     Zr  0.70801868  0.33156648  0.77510701     2.11130
O1355       O  0.69207396  0.36694466  0.80606630    -2.47950
O1356       O  0.61450646  0.38699291  0.81015857    -0.79970
O1357       O  0.68559170  0.36500186  0.74708095    -0.72160
O1358       O  0.57587543  0.33550404  0.81055547    -2.33120
O1359       O  0.60683442  0.38511048  0.75218884    -2.29330
O1360       O  0.65246778  0.31587209  0.80589023    -0.73920
H1361       H  0.65847591  0.30066627  0.73428425     0.78070
H1362       H  0.55511467  0.32871346  0.82376538     0.79160
H1363       H  0.71792155  0.37426100  0.81573285     0.81390
H1364       H  0.59509339  0.39940772  0.74226955     0.78990
H1365       H  0.52580515  0.28094756  0.81573092     0.42030
H1366       H  0.62731770  0.30220230  0.85695961     0.41000
H1367       H  0.66921010  0.39520269  0.86900318     0.40680
H1368       H  0.72668526  0.43845899  0.80511750     0.38610
H1369       H  0.72690809  0.42101116  0.73611507     0.41740
H1370       H  0.62207849  0.37811197  0.67188108     0.36530
H1371       H  0.56820022  0.31307763  0.69019636     0.42640
H1372       H  0.58145294  0.26676925  0.73023069     0.39060
H1373       H  0.67517257  0.44539998  0.81343584     0.43980
H1374       H  0.59305156  0.35389729  0.66422930     0.42700
H1375       H  0.56508120  0.25187996  0.75560453     0.42840
H1376       H  0.64863601  0.31867450  0.88153711     0.43190
C1377       C  0.93130811  0.34265387  0.76607461    -0.06510
C1378       C  0.91265532  0.35964433  0.74669748    -0.17640
C1379       C  0.87080809  0.37396945  0.75124012     0.10690
C1380       C  0.84340862  0.37038665  0.77467999    -0.06430
C1381       C  0.86233513  0.35359786  0.79418805    -0.17670
C1382       C  0.90472075  0.33976988  0.79009497     0.10720
S1383       S  0.85629275  0.39845191  0.72783105    -0.32630
S1384       S  0.92445949  0.31967564  0.81716036    -0.32640
H1385       H  0.95442304  0.30410019  0.80017209     0.28730
H1386       H  0.82378907  0.41167028  0.74534679     0.28720
H1387       H  0.93346071  0.36404899  0.72918597     0.19320
H1388       H  0.84215132  0.34964321  0.81210883     0.19320
C1389       C  0.42939612  0.34219920  0.77267700    -0.06510
C1390       C  0.42437436  0.36935314  0.77335729    -0.17640
C1391       C  0.38218472  0.38231640  0.76821851     0.10690
C1392       C  0.34207200  0.36828936  0.76330883    -0.06430
C1393       C  0.34739697  0.34117631  0.76115768    -0.17670
C1394       C  0.38977592  0.32811260  0.76630571     0.10720
S1395       S  0.38209585  0.41659429  0.76793930    -0.32630
S1396       S  0.38983736  0.29378679  0.76629100    -0.32640
H1397       H  0.42408635  0.29132225  0.78683791     0.28730
H1398       H  0.34825911  0.42047366  0.78874907     0.28720
H1399       H  0.45372398  0.38101456  0.77881548     0.19320
H1400       H  0.31759572  0.32967912  0.75678725     0.19320
C1401       C  0.99287613  0.01112951  0.78657562    -0.06510
C1402       C  0.00258113  0.00060652  0.75975510    -0.17640
C1403       C  0.03534177  0.48046207  0.75514993     0.10690
C1404       C  0.05937373  0.47016289  0.77777292    -0.06430
C1405       C  0.05014252  0.48084985  0.80460229    -0.17670
C1406       C  0.01763384  0.00124987  0.80917382     0.10720
S1407       S  0.04500948  0.46857544  0.71981541    -0.32630
S1408       S  0.00895058  0.01374390  0.84433566    -0.32640
H1409       H  0.96396942  0.02404644  0.84033929     0.28730
H1410       H  0.09097300  0.45974164  0.72386651     0.28720
H1411       H  0.98571418  0.00881850  0.74205548     0.19320
H1412       H  0.06710224  0.47263014  0.82225012     0.19320
C1413       C  0.72263905  0.24510806  0.76838183    -0.06510
C1414       C  0.74940573  0.23989422  0.79179522    -0.17640
C1415       C  0.79482595  0.23041418  0.78902539     0.10690
C1416       C  0.81268268  0.22363625  0.76242150    -0.06430
C1417       C  0.78593156  0.22867769  0.73895378    -0.17670
C1418       C  0.74101828  0.23908823  0.74169283     0.10720
S1419       S  0.82771149  0.22572652  0.82028932    -0.32630
S1420       S  0.70970083  0.24600982  0.71044654    -0.32640
H1421       H  0.66538995  0.24631425  0.72261234     0.28730
H1422       H  0.87153962  0.22587713  0.80755971     0.28720
H1423       H  0.73670859  0.24597313  0.81231353     0.19320
H1424       H  0.79862666  0.22245451  0.71848929     0.19320
C1425       C  0.45833811  0.48348930  0.75553951    -0.06510
C1426       C  0.46089865  0.47787044  0.78356769    -0.17640
C1427       C  0.49880180  0.46391361  0.79355277     0.10690
C1428       C  0.53522058  0.45584727  0.77531277    -0.06430
C1429       C  0.53227949  0.46125956  0.74728102    -0.17670
C1430       C  0.49335483  0.47403639  0.73708614     0.10720
S1431       S  0.49772622  0.45480004  0.82912071    -0.32630
S1432       S  0.48841587  0.47618919  0.70007941    -0.32640
H1433       H  0.43981953  0.47982393  0.69966954     0.28730
H1434       H  0.54625326  0.45240568  0.83207956     0.28720
H1435       H  0.43409746  0.48510186  0.79786846     0.19320
H1436       H  0.55801349  0.45313406  0.73272353     0.19320
C1437       C  0.27909823  0.19793186  0.77918192    -0.06510
C1438       C  0.24029850  0.19956508  0.76125713    -0.17640
C1439       C  0.21566634  0.22267907  0.75713902     0.10690
C1440       C  0.22916937  0.24544260  0.77141417    -0.06430
C1441       C  0.26790175  0.24393742  0.78944685    -0.17670
C1442       C  0.29233408  0.22066804  0.79372813     0.10720
S1443       S  0.16921706  0.22196408  0.73203347    -0.32630
S1444       S  0.33882032  0.22118213  0.81875578    -0.32640
H1445       H  0.33124402  0.19670566  0.82805247     0.28730
H1446       H  0.17809259  0.24581543  0.72152190     0.28720
H1447       H  0.22995650  0.18272079  0.74931643     0.19320
H1448       H  0.27899584  0.26112373  0.80067267     0.19320
C1449       C  0.58317340  0.10560629  0.77372984    -0.06510
C1450       C  0.60681755  0.08257098  0.78103163    -0.17640
C1451       C  0.65628671  0.07954664  0.78238311     0.10690
C1452       C  0.68513667  0.09976019  0.77580146    -0.06430
C1453       C  0.66076546  0.12306783  0.76958559    -0.17670
C1454       C  0.61168578  0.12601390  0.76814977     0.10720
S1455       S  0.68008042  0.04922927  0.79196591    -0.32630
S1456       S  0.58787694  0.15597739  0.75721215    -0.32640
H1457       H  0.55408352  0.14509061  0.73956233     0.28730
H1458       H  0.71121160  0.05992658  0.81144113     0.28720
H1459       H  0.58630416  0.06632315  0.78548400     0.19320
H1460       H  0.68001832  0.13966065  0.76481475     0.19320
C1461       C  0.15749021  0.05579277  0.74553074    -0.06510
C1462       C  0.14242472  0.04978257  0.71801689    -0.17640
C1463       C  0.09479425  0.05252408  0.71038073     0.10690
C1464       C  0.06231766  0.06299734  0.73010938    -0.06430
C1465       C  0.07801870  0.06660437  0.75770519    -0.17670
C1466       C  0.12361993  0.06200279  0.76571563     0.10720
S1467       S  0.07812044  0.04408525  0.67522980    -0.32630
S1468       S  0.13725784  0.06645799  0.80209942    -0.32640
H1469       H  0.17282344  0.04750739  0.80117323     0.28730
H1470       H  0.03242633  0.03803516  0.68185664     0.28720
H1471       H  0.16790002  0.04427845  0.70217741     0.19320
H1472       H  0.05601089  0.07591244  0.77322265     0.19320
C1473       C  0.97383156  0.34383078  0.90534664    -0.06510
C1474       C  0.94879093  0.35786761  0.88597080    -0.17640
C1475       C  0.97048433  0.37015169  0.86456142     0.10690
C1476       C  0.01917399  0.36797677  0.86167694    -0.06430
C1477       C  0.04394003  0.35247817  0.87995290    -0.17670
C1478       C  0.02191673  0.34032979  0.90131939     0.10720
S1479       S  0.93517834  0.39174769  0.84508629    -0.32630
S1480       S  0.05583369  0.32157938  0.92457856    -0.32640
H1481       H  0.09974753  0.32631571  0.91359052     0.28730
H1482       H  0.94462920  0.37907737  0.81940753     0.28720
H1483       H  0.91248282  0.36132111  0.88900968     0.19320
H1484       H  0.08107166  0.35024803  0.87792894     0.19320
C1485       C  0.99077956  0.35659198  0.68620550    -0.06510
C1486       C  0.99751868  0.33016767  0.68024090    -0.17640
C1487       C  0.97453167  0.31769147  0.65811435     0.10690
C1488       C  0.94290622  0.33167610  0.64231099    -0.06430
C1489       C  0.93189707  0.35724299  0.65085986    -0.17670
C1490       C  0.95623809  0.37005970  0.67211023     0.10720
S1491       S  0.99027104  0.28483134  0.64916275    -0.32630
S1492       S  0.94675377  0.40408854  0.67717941    -0.32640
H1493       H  0.96252074  0.40609064  0.70474763     0.28730
H1494       H  0.95040694  0.27972145  0.63315920     0.28720
H1495       H  0.02401008  0.31968146  0.69131100     0.19320
H1496       H  0.90866544  0.36845293  0.63864548     0.19320
C1497       C  0.79442694  0.34886368  0.86052584    -0.06510
C1498       C  0.80410057  0.33284035  0.88201192    -0.17640
C1499       C  0.82266776  0.34235787  0.90717877     0.10690
C1500       C  0.83505513  0.36836346  0.91066959    -0.06430
C1501       C  0.82941260  0.38398638  0.88834487    -0.17670
C1502       C  0.80856173  0.37466957  0.86351992     0.10720
S1503       S  0.82406834  0.32172030  0.93592905    -0.32630
S1504       S  0.79504807  0.39707796  0.83751955    -0.32640
H1505       H  0.82234919  0.41699550  0.84842151     0.28730
H1506       H  0.81291288  0.29898829  0.92099443     0.28720
H1507       H  0.79160765  0.31356967  0.88028807     0.19320
H1508       H  0.83790198  0.40389762  0.89118461     0.19320
C1509       C  0.77528188  0.35060033  0.68844336    -0.06510
C1510       C  0.78043825  0.37687680  0.68514053    -0.17640
C1511       C  0.80131268  0.38594505  0.66153807     0.10690
C1512       C  0.81469850  0.36843722  0.63979416    -0.06430
C1513       C  0.81034008  0.34210272  0.64351301    -0.17670
C1514       C  0.79194862  0.33303559  0.66768777     0.10720
S1515       S  0.80368317  0.41989463  0.65869842    -0.32630
S1516       S  0.78444619  0.29916094  0.66900977    -0.32640
H1517       H  0.78863252  0.29852026  0.69797285     0.28730
H1518       H  0.85108964  0.41915360  0.65180945     0.28720
H1519       H  0.76555577  0.39056388  0.70046861     0.19320
H1520       H  0.81870547  0.32830542  0.62675085     0.19320
C1521       C  0.45751914  0.32040989  0.91115374    -0.06510
C1522       C  0.50096677  0.33073749  0.91683820    -0.17640
C1523       C  0.52217774  0.34734506  0.89927247     0.10690
C1524       C  0.50097921  0.35301877  0.87360726    -0.06430
C1525       C  0.45965394  0.34019918  0.86643936    -0.17670
C1526       C  0.43915008  0.32328169  0.88438309     0.10720
S1527       S  0.57563519  0.36132808  0.91135971    -0.32630
S1528       S  0.39758144  0.30157736  0.86973268    -0.32640
H1529       H  0.40145218  0.28366852  0.89032608     0.28730
H1530       H  0.58961590  0.34148847  0.92832347     0.28720
H1531       H  0.51829739  0.32616401  0.93576263     0.19320
H1532       H  0.44451460  0.34205706  0.84608112     0.19320
C1533       C  0.47360479  0.34452566  0.63437153    -0.06510
C1534       C  0.46341915  0.32913122  0.65634139    -0.17640
C1535       C  0.47129712  0.33750001  0.68415638     0.10690
C1536       C  0.48752473  0.36235145  0.69040635    -0.06430
C1537       C  0.49257973  0.37855482  0.66865161    -0.17670
C1538       C  0.48874079  0.36980024  0.64097880     0.10720
S1539       S  0.46519019  0.31521730  0.71077001    -0.32630
S1540       S  0.50781806  0.39127885  0.61533501    -0.32640
H1541       H  0.50427905  0.41404108  0.63203206     0.28730
H1542       H  0.44339763  0.29608178  0.69441817     0.28720
H1543       H  0.45146498  0.31004666  0.65158658     0.19320
H1544       H  0.50586237  0.39738988  0.67336180     0.19320
C1545       C  0.32555808  0.35109207  0.90508499    -0.06510
C1546       C  0.33931256  0.36584010  0.88356797    -0.17640
C1547       C  0.32717583  0.35916385  0.85625002     0.10690
C1548       C  0.30198340  0.33700099  0.84973815    -0.06430
C1549       C  0.29242871  0.32086917  0.87088030    -0.17670
C1550       C  0.30313280  0.32755687  0.89845065     0.10720
S1551       S  0.34070106  0.38094257  0.83078728    -0.32630
S1552       S  0.28608310  0.30550197  0.92401110    -0.32640
H1553       H  0.27736853  0.28450137  0.90561350     0.28730
H1554       H  0.36688774  0.36119212  0.81712256     0.28720
H1555       H  0.35728989  0.38341159  0.88813337     0.19320
H1556       H  0.27185124  0.30426329  0.86603346     0.19320
C1557       C  0.35387026  0.37752625  0.63935827    -0.06510
C1558       C  0.35779809  0.35122306  0.64420058    -0.17640
C1559       C  0.33087548  0.33992731  0.66410895     0.10690
C1560       C  0.29806240  0.35510711  0.67931214    -0.06430
C1561       C  0.29778314  0.38182229  0.67676864    -0.17670
C1562       C  0.32513967  0.39307158  0.65706190     0.10720
S1563       S  0.33525640  0.30584192  0.66634958    -0.32630
S1564       S  0.31904823  0.42700888  0.65373753    -0.32640
H1565       H  0.36152871  0.42945320  0.63993554     0.28730
H1566       H  0.33498654  0.30679598  0.69551252     0.28720
H1567       H  0.37838055  0.33865812  0.63062785     0.19320
H1568       H  0.27373379  0.39395705  0.68910623     0.19320
C1569       C  0.60191020  0.34650224  0.54776101    -0.06510
C1570       C  0.62120818  0.35372119  0.57360095    -0.17640
C1571       C  0.66849568  0.34875212  0.57849253     0.10690
C1572       C  0.69474661  0.33499995  0.55787159    -0.06430
C1573       C  0.67390140  0.32516574  0.53383619    -0.17670
C1574       C  0.62933666  0.33277127  0.52754298     0.10720
S1575       S  0.69580198  0.36106022  0.60987949    -0.32630
S1576       S  0.61348066  0.32913093  0.99163810    -0.32640
H1577       H  0.62595520  0.35421568  0.98675465     0.28730
H1578       H  0.65678994  0.37518658  0.62026761     0.28720
H1579       H  0.59982162  0.36366338  0.58936930     0.19320
H1580       H  0.69503612  0.31549062  0.01763563     0.19320
C1581       C  0.19093880  0.34911269  0.98810500    -0.06510
C1582       C  0.16114216  0.32879361  0.98778615    -0.17640
C1583       C  0.11338314  0.33350086  0.98792682     0.10690
C1584       C  0.09581108  0.35906953  0.98785826    -0.06430
C1585       C  0.12572578  0.37889419  0.48372957    -0.17670
C1586       C  0.17368273  0.37410145  0.48395171     0.10720
S1587       S  0.07562962  0.30694765  0.99159199    -0.32630
S1588       S  0.21268342  0.40014139  0.48111843    -0.32640
H1589       H  0.17847361  0.41895278  0.47582651     0.28730
H1590       H  0.10978119  0.28734853  0.98781031     0.28720
H1591       H  0.17518233  0.30969191  0.99043049     0.19320
H1592       H  0.11187567  0.39827855  0.48333577     0.19320
C1593       C  0.49051192  0.05416861  0.84528878    -0.06510
C1594       C  0.51100573  0.07788875  0.85000360    -0.17640
C1595       C  0.51868860  0.08844194  0.87696899     0.10690
C1596       C  0.51120824  0.07413613  0.90075966    -0.06430
C1597       C  0.49150670  0.05016198  0.89630015    -0.17670
C1598       C  0.48020157  0.04039560  0.86924517     0.10720
S1599       S  0.53473448  0.12139717  0.87953278    -0.32630
S1600       S  0.45347499  0.00985280  0.86703280    -0.32640
H1601       H  0.46703543  0.00415951  0.83958835     0.28730
H1602       H  0.51524661  0.12679895  0.90598945     0.28720
H1603       H  0.51779970  0.08941913  0.83260521     0.19320
H1604       H  0.48605249  0.03859375  0.91387913     0.19320
C1605       C  0.49692835  0.07617690  0.59455496    -0.06510
C1606       C  0.50478762  0.05399537  0.60936346    -0.17640
C1607       C  0.49424625  0.05346408  0.63786843     0.10690
C1608       C  0.47741992  0.07589610  0.65244920    -0.06430
C1609       C  0.47141967  0.09815967  0.63761232    -0.17670
C1610       C  0.47914494  0.09826929  0.60909027     0.10720
S1611       S  0.50092346  0.02351986  0.65391464    -0.32630
S1612       S  0.46701621  0.12766865  0.59265885    -0.32640
H1613       H  0.44599515  0.11605753  0.56912169     0.28730
H1614       H  0.51989850  0.53397914  0.67865884     0.28720
H1615       H  0.52002661  0.03708020  0.59871358     0.19320
H1616       H  0.45774176  0.11552521  0.64817563     0.19320
C1617       C  0.77077628  0.13956468  0.91949278    -0.06510
C1618       C  0.76507923  0.12216825  0.89640555    -0.17640
C1619       C  0.76614878  0.12958364  0.86889660     0.10690
C1620       C  0.78404763  0.15338036  0.86283576    -0.06430
C1621       C  0.79438017  0.17029301  0.88584608    -0.17670
C1622       C  0.78576303  0.16417669  0.91374647     0.10720
S1623       S  0.73907464  0.10934573  0.84262377    -0.32630
S1624       S  0.79247717  0.18875339  0.94074542    -0.32640
H1625       H  0.80738325  0.17204248  0.96097537     0.28730
H1626       H  0.73305222  0.08800010  0.85852039     0.28720
H1627       H  0.75284872  0.10334470  0.90012675     0.19320
H1628       H  0.80865451  0.18863635  0.88203109     0.19320
C1629       C  0.74792122  0.13003181  0.61411186    -0.06510
C1630       C  0.77560677  0.15063437  0.62247388    -0.17640
C1631       C  0.79335672  0.15303310  0.64976960     0.10690
C1632       C  0.78267172  0.13475103  0.66920374    -0.06430
C1633       C  0.75499059  0.11446581  0.66089565    -0.17670
C1634       C  0.73817787  0.11157814  0.63381898     0.10720
S1635       S  0.83004532  0.17948012  0.65856797    -0.32630
S1636       S  0.70706029  0.08282771  0.62449981    -0.32640
H1637       H  0.70082237  0.07464622  0.65149418     0.28730
H1638       H  0.82255419  0.17985753  0.68737045     0.28720
H1639       H  0.78258791  0.16512654  0.60799420     0.19320
H1640       H  0.74921129  0.09975842  0.67533218     0.19320
C1641       C  0.53179653  0.50401013  0.52260338    -0.06510
C1642       C  0.48699252  0.50052663  0.51164003    -0.17640
C1643       C  0.46179083  0.47885755  0.51636879     0.10690
C1644       C  0.48221472  0.45876788  0.53115201    -0.06430
C1645       C  0.52604462  0.46249916  0.54330310    -0.17670
C1646       C  0.55033062  0.48504631  0.53987485     0.10720
S1647       S  0.40293557  0.47855326  0.00345954    -0.32630
S1648       S  0.60351798  0.48866329  0.55909861    -0.32640
H1649       H  0.59303522  0.51414609  0.56802411     0.28730
H1650       H  0.38552056  0.46518687  0.02552509     0.28720
H1651       H  0.47082795  0.01495905  0.99925258     0.19320
H1652       H  0.54184851  0.44762488  0.55524854     0.19320
C1653       C  0.72253549  0.21692030  0.52212570    -0.06510
C1654       C  0.75320912  0.21925410  0.54486413    -0.17640
C1655       C  0.78676990  0.23815197  0.54686334     0.10690
C1656       C  0.79037306  0.25560376  0.52568016    -0.06430
C1657       C  0.75906048  0.25365686  0.50320358    -0.17670
C1658       C  0.72515471  0.23483493  0.50138122     0.10720
S1659       S  0.82597690  0.23775275  0.57603964    -0.32630
S1660       S  0.68835360  0.23351869  0.97120756    -0.32640
H1661       H  0.64725083  0.23165691  0.98651438     0.28730
H1662       H  0.86509867  0.24491445  0.56123888     0.28720
H1663       H  0.75250172  0.20534602  0.56067630     0.19320
H1664       H  0.76065106  0.26712458  0.98699309     0.19320
C1665       C  0.05886027  0.12420757  0.86369349    -0.06510
C1666       C  0.06760915  0.15006587  0.87020042    -0.17640
C1667       C  0.08458943  0.15795295  0.89630590     0.10690
C1668       C  0.09398321  0.13929673  0.91555876    -0.06430
C1669       C  0.09218002  0.11329488  0.90712639    -0.17670
C1670       C  0.07469899  0.10548564  0.88140427     0.10720
S1671       S  0.08825407  0.19178475  0.90439167    -0.32630
S1672       S  0.06531905  0.07187354  0.87510623    -0.32640
H1673       H  0.06909417  0.07160492  0.84619173     0.28730
H1674       H  0.08146392  0.19144988  0.93313862     0.28720
H1675       H  0.05599595  0.16439957  0.85614659     0.19320
H1676       H  0.09957637  0.09887164  0.92191828     0.19320
C1677       C  0.06697187  0.13255685  0.62823071    -0.06510
C1678       C  0.09253755  0.13059609  0.60573092    -0.17640
C1679       C  0.12603614  0.11330488  0.59623754     0.10690
C1680       C  0.14133786  0.09728600  0.61658794    -0.06430
C1681       C  0.11926102  0.09861383  0.64324409    -0.17670
C1682       C  0.07969478  0.11530946  0.64824540     0.10720
S1683       S  0.12511010  0.12017700  0.55088838    -0.32630
S1684       S  0.04925621  0.11569055  0.68015032    -0.32640
H1685       H  0.02566408  0.13917857  0.67662918     0.28730
H1686       H  0.12837429  0.10531972  0.53005643     0.28720
H1687       H  0.08258791  0.14095278  0.58899205     0.19320
H1688       H  0.12946375  0.08515460  0.65847875     0.19320
C1689       C  0.23106549  0.09667189  0.86454341    -0.06510
C1690       C  0.22357981  0.12120203  0.87628427    -0.17640
C1691       C  0.21017656  0.12506477  0.90383766     0.10690
C1692       C  0.20183386  0.10346018  0.91963923    -0.06430
C1693       C  0.20525394  0.07890741  0.90666001    -0.17670
C1694       C  0.22023208  0.07527227  0.87935963     0.10720
S1695       S  0.20737775  0.15780398  0.91774241    -0.32630
S1696       S  0.22676113  0.04289610  0.86511262    -0.32640
H1697       H  0.22760507  0.04890464  0.83717031     0.28730
H1698       H  0.20367715  0.16953526  0.89224289     0.28720
H1699       H  0.23284404  0.13738397  0.86461015     0.19320
H1700       H  0.19796890  0.06227550  0.91810146     0.19320
C1701       C  0.20029956  0.13705314  0.72752110    -0.06510
C1702       C  0.18874723  0.13609135  0.75587248    -0.17640
C1703       C  0.14463062  0.14226958  0.76622019     0.10690
C1704       C  0.10899145  0.14839353  0.74786229    -0.06430
C1705       C  0.12072138  0.15284321  0.72011231    -0.17670
C1706       C  0.16607939  0.14702978  0.70967376     0.10720
S1707       S  0.13349660  0.14141298  0.80305570    -0.32630
S1708       S  0.17686262  0.15095324  0.67346969    -0.32640
H1709       H  0.20633669  0.12928449  0.66950519     0.28730
H1710       H  0.17114240  0.12516429  0.80907552     0.28720
H1711       H  0.21336899  0.12853475  0.77015089     0.19960
H1712       H  0.09380730  0.15889266  0.70601802     0.19320
C1713       C  0.98418833  0.46736116  0.52528822    -0.06510
C1714       C  0.98122675  0.98208131  0.55071266    -0.17640
C1715       C  0.00774233  0.00377029  0.55634638     0.10690
C1716       C  0.03806826  0.01218088  0.53591631    -0.06430
C1717       C  0.04080161  0.99769933  0.01037174    -0.17670
C1718       C  0.01443931  0.47585615  0.00479186     0.10720
S1719       S  0.00210425  0.01897951  0.59059820    -0.32630
S1720       S  0.02137932  0.46004705  0.97098045    -0.32640
H1721       H  0.97355735  0.46156945  0.96501100     0.28730
H1722       H  0.05030651  0.02103697  0.59452357     0.28720
H1723       H  0.95868699  0.97638101  0.56705893     0.19320
H1724       H  0.06298636  0.50373585  0.99401333     0.19320
C1725       C  0.92250742  0.07337615  0.53833673    -0.06510
C1726       C  0.89252493  0.07513609  0.56112607    -0.17640
C1727       C  0.84495904  0.07123141  0.55734563     0.10690
C1728       C  0.82738752  0.06589395  0.53042432    -0.06430
C1729       C  0.85833766  0.06035031  0.50855384    -0.17670
C1730       C  0.90594786  0.06336736  0.51244764     0.10720
S1731       S  0.80610262  0.07556123  0.58636482    -0.32630
S1732       S  0.94358948  0.05578734  0.98320636    -0.32640
H1733       H  0.98198855  0.04890954  0.99950464     0.28730
H1734       H  0.84003903  0.08041514  0.60682612     0.28720
H1735       H  0.90543032  0.08197545  0.58117336     0.19320
H1736       H  0.84513891  0.05571807  0.98790186     0.19320
C1737       C  0.32431067  0.15316669  0.01039490    -0.06510
C1738       C  0.35269432  0.16685441  0.52916817    -0.17640
C1739       C  0.40089854  0.16751275  0.52506902     0.10690
C1740       C  0.42123644  0.15379149  0.50187507    -0.06430
C1741       C  0.39202961  0.14224752  0.98191267    -0.17670
C1742       C  0.34410021  0.14196622  0.98580770     0.10720
S1743       S  0.43422146  0.18472380  0.55109985    -0.32630
S1744       S  0.31069070  0.12438812  0.96027056    -0.32640
H1745       H  0.28115949  0.14557416  0.95606796     0.28730
H1746       H  0.47007257  0.16623501  0.55233695     0.28720
H1747       H  0.33757389  0.17591303  0.54787348     0.19320
H1748       H  0.40707745  0.13176449  0.96398672     0.19320
C1749       C  0.26472196  0.26212231  0.01949855    -0.06510
C1750       C  0.24051108  0.25474158  0.99511298    -0.17640
C1751       C  0.19987660  0.24098086  0.99598517     0.10690
C1752       C  0.18345945  0.23331288  0.02169116    -0.06430
C1753       C  0.20432584  0.24286070  0.54615301    -0.17670
C1754       C  0.24435774  0.25733866  0.54552821     0.10720
S1755       S  0.17125622  0.23300252  0.96349478    -0.32630
S1756       S  0.26845375  0.26856989  0.57847308    -0.32640
H1757       H  0.23070120  0.26286683  0.59527309     0.28730
H1758       H  0.12737072  0.22961121  0.97527666     0.28720
H1759       H  0.25337906  0.25945294  0.97499729     0.19320
H1760       H  0.19160388  0.23709918  0.56589934     0.19320
O1761       O  0.13068386  0.70736649  0.04478687    -0.75680
O1762       O  0.16687799  0.69229380  0.50483892    -0.54580
C1763       C  0.15687252  0.70989798  0.52343507     0.78050
O1764       O  0.19135446  0.57552400  0.08842647    -0.60280
O1765       O  0.11950528  0.56413179  0.09483784    -0.53310
C1766       C  0.15614796  0.57420234  0.10469748     0.70070
O1767       O  0.27141768  0.63382591  0.03957037    -0.74840
O1768       O  0.24297043  0.65565815  0.50334162    -0.55400
C1769       C  0.27640686  0.64757305  0.51847226     0.76070
O1770       O  0.02028171  0.65959420  0.10026721    -0.59980
O1771       O  0.00859031  0.61791044  0.10304877    -0.53100
C1772       C  0.02161249  0.63886205  0.11522524     0.72660
Zr1773     Zr  0.08770253  0.67300339  0.06497530     2.54710
O1774       O  0.09548534  0.69779388  0.10872788    -0.80550
O1775       O  0.03714052  0.70949415  0.05468268    -0.93960
Zr1776     Zr  0.20694962  0.61674126  0.06528190     2.64680
O1777       O  0.23086026  0.62837285  0.11269575    -0.98920
O1778       O  0.28949081  0.60659489  0.07036624    -0.80980
O1779       O  0.17106556  0.65930726  0.05083276    -0.84340
O1780       O  0.15011655  0.64985750  0.08338758    -2.19050
O1781       O  0.97473376  0.60108546  0.51985096    -0.67730
O1782       O  0.99356517  0.58426120  0.06111653    -0.52290
C1783       C  0.96649246  0.58700020  0.04011363     0.71040
O1784       O  0.16765828  0.58693576  0.45947058    -0.60630
O1785       O  0.19683212  0.62668463  0.46235932    -0.52610
C1786       C  0.18821308  0.60575096  0.44906925     0.72850
O1787       O  0.09500895  0.54013437  0.52035254    -0.72030
O1788       O  0.05198711  0.55385182  0.05809477    -0.50710
C1789       C  0.06405253  0.53669637  0.03895114     0.74230
O1790       O  0.06203286  0.63315215  0.45807644    -0.67360
O1791       O  0.12697379  0.65651877  0.45762593    -0.54560
C1792       C  0.09380723  0.64451993  0.44550755     0.72610
Zr1793     Zr  0.03537281  0.62802990  0.50441389     2.77540
O1794       O  0.97330507  0.61934911  0.47107510    -0.98110
O1795       O  0.98708725  0.66697096  0.50667917    -0.78930
Zr1796     Zr  0.14244910  0.57474586  0.50526126     2.70070
O1797       O  0.13323640  0.54108171  0.46919962    -0.80180
O1798       O  0.21460596  0.55060546  0.51215444    -0.99260
Zr1799     Zr  0.16095173  0.64696945  0.50215600     2.21500
Zr1800     Zr  0.07223722  0.59839984  0.07126855     2.11130
O1801       O  0.06411753  0.58870474  0.52103044    -2.47950
O1802       O  0.10982563  0.61355288  0.48759470    -0.79970
O1803       O  0.03710981  0.63730422  0.05266680    -0.72160
O1804       O  0.19880869  0.60778887  0.51607958    -2.33120
O1805       O  0.08466913  0.66231431  0.51615996    -2.29330
O1806       O  0.15472289  0.57746252  0.05509301    -0.73920
H1807       H  0.15912776  0.65696583  0.10158996     0.78070
H1808       H  0.22796075  0.60373679  0.50678111     0.79160
H1809       H  0.04296869  0.57593274  0.51448743     0.81390
H1810       H  0.07582054  0.67704808  0.50597202     0.78990
H1811       H  0.29115946  0.58788750  0.07213229     0.42030
H1812       H  0.20490866  0.53281032  0.01373432     0.41000
H1813       H  0.10314063  0.54530853  0.46032834     0.40680
H1814       H  0.98609366  0.60566715  0.45811094     0.38610
H1815       H  0.96336097  0.66401783  0.52087442     0.41740
H1816       H  0.04205251  0.71255955  0.03485137     0.36530
H1817       H  0.12420036  0.70738711  0.10653595     0.42640
H1818       H  0.24653526  0.61287305  0.11952490     0.39060
H1819       H  0.97059982  0.63461426  0.45990730     0.43980
H1820       H  0.05045321  0.72438728  0.06495482     0.42700
H1821       H  0.25597840  0.64061870  0.11077723     0.42840
H1822       H  0.23059208  0.55049775  0.49400381     0.43190
O1823       O  0.50322272  0.66161835  0.00386860    -0.75680
O1824       O  0.47680890  0.62079520  0.99865958    -0.54580
C1825       C  0.47057644  0.64518488  0.00116041     0.78050
O1826       O  0.70440978  0.62393170  0.43658320    -0.60280
O1827       O  0.75424752  0.63667116  0.47064893    -0.53310
C1828       C  0.74246386  0.63345134  0.44452575     0.70070
O1829       O  0.57453889  0.59045179  0.42485847    -0.74840
O1830       O  0.51500237  0.57937846  0.45225184    -0.55400
C1831       C  0.53411192  0.58176156  0.42802145     0.76070
O1832       O  0.65277227  0.69237848  0.01352155    -0.59980
O1833       O  0.72356154  0.67243304  0.01961411    -0.53100
C1834       C  0.69739129  0.69249723  0.01803041     0.72660
Zr1835     Zr  0.58943105  0.66068881  0.00625342     2.54710
O1836       O  0.57688497  0.68613567  0.46603964    -0.80550
O1837       O  0.56299030  0.69516372  0.03872193    -0.93960
Zr1838     Zr  0.63639190  0.60662123  0.45295223     2.64680
O1839       O  0.61713715  0.63659356  0.41754380    -0.98920
O1840       O  0.67184806  0.57463530  0.42060320    -0.80980
O1841       O  0.57049138  0.62505498  0.97564250    -0.84340
O1842       O  0.65482640  0.64256571  0.98216694    -2.19050
O1843       O  0.68004049  0.62317273  0.09026207    -0.67730
O1844       O  0.74082025  0.63357877  0.06351819    -0.52290
C1845       C  0.72200324  0.62939623  0.08729822     0.71040
O1846       O  0.60066473  0.52900398  0.01875207    -0.60630
O1847       O  0.52983494  0.54651656  0.00799363    -0.52610
C1848       C  0.55598131  0.52797681  0.01610706     0.72850
O1849       O  0.74725007  0.55834997  0.02151114    -0.72030
O1850       O  0.77538366  0.59863513  0.02039205    -0.50710
C1851       C  0.78007188  0.57456597  0.02351113     0.74230
O1852       O  0.56542817  0.57669024  0.06904011    -0.67360
O1853       O  0.50057759  0.58429001  0.04520553    -0.54560
C1854       C  0.52135259  0.57849043  0.06788095     0.72610
Zr1855     Zr  0.61183803  0.61366731  0.06455504     2.77540
O1856       O  0.59542015  0.60605747  0.11303643    -0.98110
O1857       O  0.56766848  0.64969883  0.08602733    -0.78930
Zr1858     Zr  0.66307303  0.55960106  0.01187897     2.70070
O1859       O  0.68507155  0.53009147  0.04718708    -0.80180
O1860       O  0.68550993  0.52930250  0.47404415    -0.99260
Zr1861     Zr  0.54175601  0.59116188  0.00117875     2.21500
Zr1862     Zr  0.71046654  0.62765329  0.01479234     2.11130
O1863       O  0.67946405  0.59535655  0.04226072    -2.47950
O1864       O  0.59714188  0.57798484  0.03453010    -0.79970
O1865       O  0.64403068  0.64606231  0.03918947    -0.72160
O1866       O  0.60853053  0.57281553  0.97795551    -2.33120
O1867       O  0.55762793  0.62772086  0.03193084    -2.29330
O1868       O  0.69314987  0.59169730  0.98445101    -0.73920
H1869       H  0.66759422  0.65578598  0.47157600     0.78070
H1870       H  0.60042383  0.55846797  0.46573077     0.79160
H1871       H  0.70148743  0.58931955  0.05568843     0.81390
H1872       H  0.52988734  0.63354240  0.04177267     0.78990
H1873       H  0.65735769  0.55844635  0.42488674     0.42030
H1874       H  0.71375145  0.53641458  0.46617300     0.41000
H1875       H  0.67735381  0.53952224  0.06497524     0.40680
H1876       H  0.60851853  0.58880892  0.11616120     0.38610
H1877       H  0.59157879  0.66142068  0.09337425     0.41740
H1878       H  0.54417563  0.68687259  0.05258351     0.36530
H1879       H  0.55584914  0.67595529  0.45391081     0.42640
H1880       H  0.63036575  0.65298875  0.42421590     0.39060
H1881       H  0.61475720  0.61784825  0.12443783     0.43980
H1882       H  0.54022319  0.70529696  0.02813405     0.42700
H1883       H  0.63630305  0.63085176  0.40125022     0.42840
H1884       H  0.69692299  0.51398290  0.98339239     0.43190
O1885       O  0.33159274  0.78270906  0.03881608    -0.75680
O1886       O  0.31880993  0.78378123  0.49258138    -0.54580
C1887       C  0.30818554  0.77657737  0.51675992     0.78050
O1888       O  0.33008497  0.88608563  0.09449673    -0.60280
O1889       O  0.40794072  0.88401562  0.10276123    -0.53310
C1890       C  0.36514063  0.88494421  0.11090866     0.70070
O1891       O  0.24886269  0.85791082  0.02026626    -0.74840
O1892       O  0.26532879  0.82978647  0.48349859    -0.55400
C1893       C  0.23800120  0.84494073  0.49798277     0.76070
O1894       O  0.43577266  0.81777473  0.09850205    -0.59980
O1895       O  0.48675424  0.84612166  0.08642451    -0.53100
C1896       C  0.46572735  0.83498012  0.10501288     0.72660
Zr1897     Zr  0.40312965  0.80486220  0.05177387     2.54710
O1898       O  0.38682152  0.77429878  0.08645726    -0.80550
O1899       O  0.46027002  0.77088180  0.03995139    -0.93960
Zr1900     Zr  0.31694179  0.86657294  0.04836026     2.64680
O1901       O  0.26597321  0.84356157  0.07782661    -0.98920
O1902       O  0.26951444  0.90571686  0.05275223    -0.80980
O1903       O  0.33552660  0.82411135  0.03236385    -0.84340
O1904       O  0.38343679  0.84713913  0.06702174    -2.19050
O1905       O  0.53331278  0.83130011  0.02985212    -0.67730
O1906       O  0.52995760  0.87010904  0.05250857    -0.52290
C1907       C  0.55247724  0.85007087  0.04275195     0.71040
O1908       O  0.36737499  0.87559777  0.44077796    -0.60630
O1909       O  0.30995996  0.85072824  0.45213246    -0.52610
C1910       C  0.33424670  0.86032777  0.43402532     0.72850
O1911       O  0.43922833  0.92654175  0.00827879    -0.72030
O1912       O  0.46649714  0.91883885  0.05161842    -0.50710
C1913       C  0.46104807  0.93313514  0.03071776     0.74230
O1914       O  0.45647335  0.80245338  0.45536507    -0.67360
O1915       O  0.38813787  0.81364352  0.43833349    -0.54560
C1916       C  0.43221673  0.80982256  0.43510398     0.72610
Zr1917     Zr  0.47822796  0.83210482  0.49279590     2.77540
O1918       O  0.52782531  0.86029153  0.46810998    -0.98110
O1919       O  0.53343695  0.79824275  0.47757131    -0.78930
Zr1920     Zr  0.39266905  0.89252904  0.48761979     2.70070
O1921       O  0.42839499  0.91753549  0.45281741    -0.80180
O1922       O  0.32786756  0.92327388  0.48580289    -0.99260
Zr1923     Zr  0.34885386  0.82485413  0.48371656     2.21500
Zr1924     Zr  0.44578840  0.87430941  0.05708458     2.11130
O1925       O  0.46010283  0.87499166  0.00849002    -2.47950
O1926       O  0.41217774  0.85024398  0.47179663    -0.79970
O1927       O  0.46409781  0.83137957  0.04073286    -0.72160
O1928       O  0.33086634  0.86791672  0.50049598    -2.33120
O1929       O  0.41617019  0.80491242  0.50320844    -2.29330
O1930       O  0.37848434  0.89328031  0.03663257    -0.73920
H1931       H  0.37596190  0.84485983  0.08595470     0.78070
H1932       H  0.30436956  0.87617180  0.49222813     0.79160
H1933       H  0.48601461  0.88580585  0.50600841     0.81390
H1934       H  0.42052828  0.78755648  0.49578667     0.78990
H1935       H  0.29204750  0.91957332  0.05255541     0.42030
H1936       H  0.32699654  0.93197713  0.00450381     0.41000
H1937       H  0.44761583  0.90501621  0.44146460     0.40680
H1938       H  0.50659365  0.87316977  0.46014618     0.38610
H1939       H  0.53171577  0.78553535  0.99195829     0.41740
H1940       H  0.44240495  0.75504191  0.03933995     0.36530
H1941       H  0.36619677  0.78380071  0.10003416     0.42640
H1942       H  0.28727638  0.83405226  0.08998652     0.39060
H1943       H  0.54630839  0.86988622  0.48220382     0.43980
H1944       H  0.47992404  0.76985478  0.05673979     0.42700
H1945       H  0.25104666  0.85692041  0.09034607     0.42840
H1946       H  0.33861640  0.93635074  0.47344720     0.43190
O1947       O  0.93742340  0.93660064  0.04497774    -0.75680
O1948       O  0.95790573  0.92875204  0.49981390    -0.54580
C1949       C  0.95804223  0.94274152  0.52275875     0.78050
O1950       O  0.96958687  0.82978364  0.09691006    -0.60280
O1951       O  0.89333763  0.82171269  0.10430386    -0.53310
C1952       C  0.93520686  0.82521192  0.11267470     0.70070
O1953       O  0.04242940  0.85498118  0.02228256    -0.74840
O1954       O  0.01950900  0.87785650  0.48533157    -0.55400
C1955       C  0.04976297  0.86512555  0.49923282     0.76070
O1956       O  0.85554131  0.89355842  0.10696795    -0.59980
O1957       O  0.80959641  0.86239062  0.09185422    -0.53100
C1958       C  0.82705465  0.87580964  0.11158423     0.72660
Zr1959     Zr  0.88655320  0.90441462  0.06128169     2.54710
O1960       O  0.92030501  0.92965471  0.09955316    -0.80550
O1961       O  0.82351989  0.93626281  0.06021695    -0.93960
Zr1962     Zr  0.97804108  0.84539142  0.05054010     2.64680
O1963       O  0.03219311  0.86984013  0.07928831    -0.98920
O1964       O  0.02740301  0.80702981  0.05208031    -0.80980
O1965       O  0.95436007  0.88709985  0.03793014    -0.84340
O1966       O  0.91206213  0.86319845  0.07308701    -2.19050
O1967       O  0.75110781  0.85481983  0.03436893    -0.67730
O1968       O  0.77345253  0.82802488  0.06790672    -0.52290
C1969       C  0.74293296  0.83981399  0.05392543     0.71040
O1970       O  0.93465772  0.82587147  0.44466003    -0.60630
O1971       O  0.96191340  0.86653344  0.44665179    -0.52610
C1972       C  0.95551096  0.84489391  0.43409944     0.72850
O1973       O  0.84399047  0.78259012  0.00449215    -0.72030
O1974       O  0.82750627  0.78996904  0.05049590    -0.50710
C1975       C  0.82350100  0.77705498  0.02714718     0.74230
O1976       O  0.81355063  0.87585870  0.45613996    -0.67360
O1977       O  0.88744582  0.88649720  0.44582531    -0.54560
C1978       C  0.84599553  0.87910045  0.43890070     0.72610
Zr1979     Zr  0.80798223  0.87378296  0.50506537     2.77540
O1980       O  0.73630520  0.86678549  0.47914713    -0.98110
O1981       O  0.77177197  0.91627238  0.51020932    -0.78930
Zr1982     Zr  0.90101000  0.81401766  0.49079038     2.70070
O1983       O  0.89484269  0.78236752  0.45203440    -0.80180
O1984       O  0.96476918  0.78491346  0.00213457    -0.99260
Zr1985     Zr  0.93498551  0.88425789  0.48973730     2.21500
Zr1986     Zr  0.85359858  0.83317899  0.06182962     2.11130
O1987       O  0.83252910  0.83152802  0.01382331    -2.47950
O1988       O  0.87432294  0.85569105  0.48200102    -0.79970
O1989       O  0.82674870  0.87533141  0.05191309    -0.72160
O1990       O  0.95972772  0.84244780  0.00250032    -2.33120
O1991       O  0.86807348  0.90336913  0.51299329    -2.29330
O1992       O  0.92066050  0.81495265  0.03895405    -0.73920
H1993       H  0.91873478  0.86586340  0.09244179     0.78070
H1994       H  0.98522955  0.83544468  0.49139671     0.79160
H1995       H  0.80532113  0.82172702  0.00984165     0.81390
H1996       H  0.86048422  0.92007176  0.50646784     0.78990
H1997       H  0.00628936  0.79346445  0.05707097     0.42030
H1998       H  0.94948968  0.76915382  0.00714510     0.41000
H1999       H  0.86882702  0.77133835  0.45628991     0.40680
H2000       H  0.73145411  0.84820819  0.47944552     0.38610
H2001       H  0.74723719  0.91468543  0.02429608     0.41740
H2002       H  0.83916557  0.95250953  0.05767546     0.36530
H2003       H  0.94536968  0.91846134  0.10670861     0.42640
H2004       H  0.01269212  0.87833155  0.09413669     0.39060
H2005       H  0.71124241  0.87476399  0.49096272     0.43980
H2006       H  0.81180581  0.93782382  0.07952315     0.42700
H2007       H  0.05105133  0.85684978  0.08879594     0.42840
H2008       H  0.97988664  0.78028649  0.48408758     0.43190
O2009       O  0.27698082  0.62893940  0.20383385    -0.75680
O2010       O  0.25036586  0.60181580  0.23084550    -0.54580
C2011       C  0.24337499  0.62198747  0.21869911     0.78050
O2012       O  0.38623595  0.00708917  0.25634943    -0.60280
O2013       O  0.45036908  0.52304287  0.23738220    -0.53310
C2014       C  0.42896093  0.00528751  0.24840825     0.70070
O2015       O  0.23884651  0.54396292  0.24370566    -0.74840
O2016       O  0.21578132  0.58160177  0.26625313    -0.55400
C2017       C  0.20726466  0.56042703  0.25238392     0.76070
O2018       O  0.41221563  0.58654060  0.17824884    -0.59980
O2019       O  0.47221194  0.56871811  0.20228957    -0.53100
C2020       C  0.45300188  0.57644031  0.17966653     0.72660
Zr2021     Zr  0.34987838  0.60142695  0.20760048     2.54710
O2022       O  0.30874889  0.58079039  0.16886247    -0.80550
O2023       O  0.37251767  0.63649312  0.17999521    -0.93960
Zr2024     Zr  0.32356616  0.53925507  0.25049235     2.64680
O2025       O  0.31630696  0.01346625  0.20731500    -0.98920
O2026       O  0.28622258  0.00583283  0.27476483    -0.80980
O2027       O  0.29865431  0.57938850  0.23510090    -0.84340
O2028       O  0.37666165  0.56030205  0.22239536    -2.19050
O2029       O  0.50045741  0.62407239  0.27564333    -0.67730
O2030       O  0.51832231  0.58430991  0.25632082    -0.52290
C2031       C  0.53053855  0.60530405  0.26827457     0.71040
O2032       O  0.29943084  0.58206033  0.34330924    -0.60630
O2033       O  0.24881006  0.60650928  0.31916964    -0.52610
C2034       C  0.26097529  0.59453571  0.34050102     0.72850
O2035       O  0.42835355  0.54107636  0.31614016    -0.72030
O2036       O  0.48833177  0.55536457  0.29416736    -0.50710
C2037       C  0.46998026  0.54801572  0.31682495     0.74230
O2038       O  0.34912833  0.67011673  0.28077675    -0.67360
O2039       O  0.27680800  0.65296198  0.28044505    -0.54560
C2040       C  0.30373276  0.67218863  0.28112583     0.72610
Zr2041     Zr  0.41062112  0.63459852  0.27510781     2.77540
O2042       O  0.43349780  0.65813729  0.31751045    -0.98110
O2043       O  0.44178423  0.66718292  0.24693128    -0.78930
Zr2044     Zr  0.37251879  0.57539104  0.31897023     2.70070
O2045       O  0.41241346  0.60292452  0.35286883    -0.80180
O2046       O  0.37145394  0.55141377  0.36084803    -0.99260
Zr2047     Zr  0.28587455  0.60631870  0.27513335     2.21500
Zr2048     Zr  0.44381669  0.56709587  0.25111946     2.11130
O2049       O  0.42971114  0.59452777  0.29185793    -2.47950
O2050       O  0.35225984  0.61580956  0.30302117    -0.79970
O2051       O  0.42003918  0.60759912  0.23427902    -0.72160
O2052       O  0.30735741  0.56585532  0.29115483    -2.33120
O2053       O  0.34132980  0.62776293  0.24815839    -2.29330
O2054       O  0.38848031  0.54742186  0.27935115    -0.73920
H2055       H  0.38462930  0.54910523  0.20648823     0.78070
H2056       H  0.28251974  0.55833093  0.30095395     0.79160
H2057       H  0.45652640  0.59691365  0.30350062     0.81390
H2058       H  0.32981411  0.64353692  0.24106171     0.78990
H2059       H  0.26294313  0.01478728  0.28713184     0.42030
H2060       H  0.34430918  0.54034569  0.35871692     0.41000
H2061       H  0.38722601  0.61316466  0.36242798     0.40680
H2062       H  0.45480768  0.64621704  0.32692722     0.38610
H2063       H  0.44832368  0.65826244  0.22870573     0.41740
H2064       H  0.36318093  0.65210310  0.19126464     0.36530
H2065       H  0.29736845  0.56488817  0.17625595     0.42640
H2066       H  0.34748434  0.00544307  0.20401387     0.39060
H2067       H  0.45382597  0.67152041  0.31112196     0.43980
H2068       H  0.35072077  0.63606243  0.16409244     0.42700
H2069       H  0.29668532  0.99920419  0.21219438     0.42840
H2070       H  0.36303589  0.56397391  0.37617506     0.43190
O2071       O  0.98348522  0.57144937  0.20914861    -0.75680
O2072       O  0.01526615  0.59959947  0.23609085    -0.54580
C2073       C  0.01889228  0.57822696  0.22355602     0.78050
O2074       O  0.88461014  0.69980410  0.26077305    -0.60280
O2075       O  0.81423933  0.68095438  0.25977971    -0.53310
C2076       C  0.83989347  0.70019088  0.26016833     0.70070
O2077       O  0.02824639  0.66089664  0.25015058    -0.74840
O2078       O  0.05288991  0.62390866  0.26916692    -0.55400
C2079       C  0.06021948  0.64450485  0.25641504     0.76070
O2080       O  0.84829161  0.61780805  0.18976744    -0.59980
O2081       O  0.79556249  0.63933350  0.21849535    -0.53100
C2082       C  0.81064535  0.63097831  0.19430292     0.72660
Zr2083     Zr  0.91200151  0.60048107  0.21593361     2.54710
O2084       O  0.94323966  0.61537881  0.17312658    -0.80550
O2085       O  0.88096869  0.56338818  0.19070288    -0.93960
Zr2086     Zr  0.94496543  0.66573051  0.26050386     2.64680
O2087       O  0.95581016  0.68866989  0.21848447    -0.98920
O2088       O  0.98176737  0.69915474  0.28886795    -0.80980
O2089       O  0.96707577  0.62442194  0.24198488    -0.84340
O2090       O  0.88910754  0.64259292  0.23459522    -2.19050
O2091       O  0.76866922  0.58075474  0.28139689    -0.67730
O2092       O  0.75342849  0.62020178  0.26600582    -0.52290
C2093       C  0.73923681  0.59930747  0.27436352     0.71040
O2094       O  0.98205870  0.62915582  0.34971079    -0.60630
O2095       O  0.03182696  0.60566281  0.32140588    -0.52610
C2096       C  0.02210379  0.61885279  0.34373256     0.72850
O2097       O  0.84424774  0.66588921  0.33375857    -0.72030
O2098       O  0.78449109  0.64930731  0.31137069    -0.50710
C2099       C  0.80324208  0.65794736  0.33433669     0.74230
O2100       O  0.92210030  0.53741469  0.28755898    -0.67360
O2101       O  0.99378675  0.55539381  0.28876754    -0.54560
C2102       C  0.96734857  0.53617031  0.28871477     0.72610
Zr2103     Zr  0.85945142  0.57159540  0.28399153     2.77540
O2104       O  0.83642584  0.55302983  0.32685701    -0.98110
O2105       O  0.83046945  0.53475192  0.25735567    -0.78930
Zr2106     Zr  0.90426375  0.63348195  0.33009049     2.70070
O2107       O  0.87101592  0.60745019  0.36485432    -0.80180
O2108       O  0.91675206  0.65927047  0.37282092    -0.99260
Zr2109     Zr  0.98407260  0.60059473  0.28115755     2.21500
Zr2110     Zr  0.82674892  0.63770768  0.26628173     2.11130
O2111       O  0.84437629  0.61217266  0.30451714    -2.47950
O2112       O  0.92105093  0.59207972  0.31088582    -0.79970
O2113       O  0.84534053  0.59644501  0.24518729    -0.72160
O2114       O  0.96493078  0.64199138  0.29956592    -2.33120
O2115       O  0.92622919  0.57691304  0.25534088    -2.29330
O2116       O  0.88425555  0.65997568  0.29265299    -0.73920
H2117       H  0.87971003  0.65343012  0.21993067     0.78070
H2118       H  0.99085856  0.65048381  0.30824864     0.79160
H2119       H  0.81902832  0.60956573  0.31673978     0.81390
H2120       H  0.93762066  0.56051781  0.24796202     0.78990
H2121       H  0.96190170  0.70147962  0.30558348     0.42030
H2122       H  0.91293669  0.67721412  0.36765518     0.41000
H2123       H  0.89798961  0.59799395  0.37247674     0.40680
H2124       H  0.80205289  0.55357282  0.32638103     0.38610
H2125       H  0.84338667  0.53618116  0.23852855     0.41740
H2126       H  0.89879958  0.54864798  0.19771318     0.36530
H2127       H  0.93662624  0.63402494  0.17428125     0.42640
H2128       H  0.92440087  0.69090002  0.21043407     0.39060
H2129       H  0.84514900  0.53468742  0.32412514     0.43980
H2130       H  0.89211157  0.56466262  0.17144337     0.42700
H2131       H  0.96426655  0.70605091  0.22525370     0.42840
H2132       H  0.88969678  0.65637983  0.38472088     0.43190
O2133       O  0.21927223  0.85507804  0.18905298    -0.75680
O2134       O  0.26644824  0.83131143  0.21617473    -0.54580
C2135       C  0.25887567  0.84492049  0.19485549     0.78050
O2136       O  0.12836336  0.94235533  0.27509428    -0.60280
O2137       O  0.05576095  0.92605019  0.27177388    -0.53310
C2138       C  0.08326484  0.94467634  0.27469232     0.70070
O2139       O  0.27617303  0.89991064  0.27197529    -0.74840
O2140       O  0.26829347  0.86747273  0.24336679    -0.55400
C2141       C  0.29442045  0.87999531  0.25908191     0.76070
O2142       O  0.06673028  0.86874121  0.19077003    -0.59980
O2143       O  0.02009918  0.87494250  0.22856894    -0.53100
C2144       C  0.02721821  0.86907216  0.20264407     0.72660
Zr2145     Zr  0.14205786  0.85811537  0.20826502     2.54710
O2146       O  0.14491008  0.88742828  0.17093128    -0.80550
O2147       O  0.13445496  0.82253127  0.17415550    -0.93960
Zr2148     Zr  0.18915366  0.90720731  0.26866089     2.64680
O2149       O  0.21351100  0.93215759  0.23043887    -0.98920
O2150       O  0.21891517  0.93830007  0.30288984    -0.80980
O2151       O  0.20307789  0.87134968  0.23706794    -0.84340
O2152       O  0.12572521  0.89465740  0.23912913    -2.19050
O2153       O  0.01106631  0.82168971  0.26311272    -0.67730
O2154       O  0.99646543  0.86417830  0.27425652    -0.52290
C2155       C  0.98309980  0.84182762  0.26813427     0.71040
O2156       O  0.22665408  0.84441453  0.33801433    -0.60630
O2157       O  0.27560903  0.83248071  0.30225936    -0.52610
C2158       C  0.26642883  0.83744329  0.32818646     0.72850
O2159       O  0.08889661  0.88329990  0.34353930    -0.72030
O2160       O  0.02812016  0.88136667  0.31498785    -0.50710
C2161       C  0.04596134  0.87939452  0.33920169     0.74230
O2162       O  0.16162618  0.77466703  0.26790724    -0.67360
O2163       O  0.23541000  0.78902082  0.26266614    -0.54560
C2164       C  0.20682339  0.77125681  0.26685296     0.72610
Zr2165     Zr  0.09946044  0.80953388  0.26349469     2.77540
O2166       O  0.06696245  0.78119660  0.29628366    -0.98110
O2167       O  0.07519830  0.78062636  0.22544133    -0.78930
Zr2168     Zr  0.15046036  0.85630914  0.32319709     2.70070
O2169       O  0.12311370  0.81915307  0.34575854    -0.80180
O2170       O  0.17541087  0.87110963  0.36954929    -0.99260
Zr2171     Zr  0.22466217  0.83457965  0.26119346     2.21500
Zr2172     Zr  0.06873507  0.88088909  0.27028228     2.11130
O2173       O  0.08624228  0.84411659  0.29599573    -2.47950
O2174       O  0.16496002  0.82148216  0.29102658    -0.79970
O2175       O  0.08346667  0.84587266  0.23830318    -0.72160
O2176       O  0.20887872  0.87028174  0.29366206    -2.33120
O2177       O  0.16057341  0.82100021  0.23302964    -2.29330
O2178       O  0.13102559  0.89399339  0.29966145    -0.73920
H2179       H  0.11388393  0.90874650  0.22883001     0.78070
H2180       H  0.23539013  0.87546393  0.30449162     0.79160
H2181       H  0.06121698  0.83913904  0.30759931     0.81390
H2182       H  0.17000099  0.80675570  0.22061430     0.78990
H2183       H  0.22559116  0.92836610  0.31939562     0.42030
H2184       H  0.16110980  0.88835118  0.37304812     0.41000
H2185       H  0.15018069  0.81305469  0.35650926     0.40680
H2186       H  0.04776569  0.79248359  0.30905623     0.38610
H2187       H  0.08753670  0.78793687  0.20856310     0.41740
H2188       H  0.15738610  0.82563051  0.15955679     0.36530
H2189       H  0.16437889  0.90143546  0.17837700     0.42640
H2190       H  0.18423860  0.93924635  0.22278216     0.39060
H2191       H  0.04416205  0.77117900  0.28526708     0.43980
H2192       H  0.10393591  0.82550481  0.16523059     0.42700
H2193       H  0.22866899  0.94707305  0.23954038     0.42840
H2194       H  0.15979166  0.86023405  0.38258578     0.43190
O2195       O  0.55705118  0.87559348  0.20974640    -0.75680
O2196       O  0.50400126  0.86545278  0.24022342    -0.54580
C2197       C  0.51653245  0.86867004  0.21513409     0.78050
O2198       O  0.64985374  0.76831234  0.27244487    -0.60280
O2199       O  0.72011755  0.78760543  0.27344728    -0.53310
C2200       C  0.69469978  0.76824391  0.27181588     0.70070
O2201       O  0.50106974  0.81350379  0.26965459    -0.74840
O2202       O  0.49275011  0.84523621  0.30115859    -0.55400
C2203       C  0.47532035  0.83137157  0.28238120     0.76070
O2204       O  0.69870667  0.85227529  0.20196287    -0.59980
O2205       O  0.74939457  0.83216134  0.23019723    -0.53100
C2206       C  0.73927493  0.84375936  0.20790777     0.72660
Zr2207     Zr  0.62254244  0.84936699  0.22078648     2.54710
O2208       O  0.60128788  0.81025670  0.19505324    -0.80550
O2209       O  0.62334274  0.85924510  0.17193178    -0.93960
Zr2210     Zr  0.58757841  0.80166012  0.27737846     2.64680
O2211       O  0.55920979  0.76780698  0.24588766    -0.98920
O2212       O  0.55932788  0.77632704  0.31430170    -0.80980
O2213       O  0.56408735  0.83605903  0.25061445    -0.84340
O2214       O  0.64710796  0.81450635  0.24665936    -2.19050
O2215       O  0.76214071  0.89027046  0.27611640    -0.67730
O2216       O  0.77931929  0.84774086  0.26801632    -0.52290
C2217       C  0.79148831  0.87049747  0.27231366     0.71040
O2218       O  0.56776556  0.87386047  0.35637617    -0.60630
O2219       O  0.50740041  0.86987402  0.32792535    -0.52610
C2220       C  0.52590022  0.86735690  0.35198826     0.72850
O2221       O  0.71525141  0.84625083  0.35367331    -0.72030
O2222       O  0.76065072  0.83436074  0.31640013    -0.50710
C2223       C  0.75486013  0.84179336  0.34225513     0.74230
O2224       O  0.60727735  0.93227717  0.27748133    -0.67360
O2225       O  0.53716723  0.91457062  0.28640961    -0.54560
C2226       C  0.56261250  0.93315988  0.28111667     0.72610
Zr2227     Zr  0.67237257  0.90006628  0.27811100     2.77540
O2228       O  0.69877295  0.93129657  0.31332585    -0.98110
O2229       O  0.69607136  0.92792259  0.24227505    -0.78930
Zr2230     Zr  0.63716561  0.85207599  0.33710344     2.70070
O2231       O  0.65751062  0.87968605  0.37709705    -0.80180
O2232       O  0.62226587  0.81828388  0.36834148    -0.99260
Zr2233     Zr  0.55050456  0.87045184  0.28395235     2.21500
Zr2234     Zr  0.70801865  0.83156646  0.27510716     2.11130
O2235       O  0.69207388  0.86694471  0.30606634    -2.47950
O2236       O  0.61450638  0.88699297  0.31015850    -0.79970
O2237       O  0.68559176  0.86500177  0.24708098    -0.72160
O2238       O  0.57587535  0.83550411  0.31055552    -2.33120
O2239       O  0.60683448  0.88511040  0.25218876    -2.29330
O2240       O  0.65246768  0.81587215  0.30589039    -0.73920
H2241       H  0.65847596  0.80066616  0.23428444     0.78070
H2242       H  0.55511461  0.82871356  0.32376546     0.79160
H2243       H  0.71792146  0.87426106  0.31573290     0.81390
H2244       H  0.59509346  0.89940760  0.24226942     0.78990
H2245       H  0.52580504  0.78094765  0.31573108     0.42030
H2246       H  0.62731725  0.80220251  0.35695982     0.41000
H2247       H  0.66920995  0.89520289  0.36900312     0.40680
H2248       H  0.72668505  0.93845911  0.30511734     0.38610
H2249       H  0.72690818  0.92101102  0.23611496     0.41740
H2250       H  0.62207868  0.87811170  0.17188102     0.36530
H2251       H  0.56820033  0.81307738  0.19019654     0.42640
H2252       H  0.58145288  0.76676916  0.23023090     0.39060
H2253       H  0.67517235  0.94539994  0.31343581     0.43980
H2254       H  0.59305177  0.85389701  0.16422928     0.42700
H2255       H  0.56508117  0.75187992  0.25560478     0.42840
H2256       H  0.64863574  0.81867472  0.38153725     0.43190
C2257       C  0.93130833  0.84265400  0.26607471    -0.06510
C2258       C  0.91265538  0.85964451  0.24669768    -0.17640
C2259       C  0.87080809  0.87396955  0.25124037     0.10690
C2260       C  0.84340866  0.87038660  0.27468019    -0.06430
C2261       C  0.86233530  0.85359779  0.29418820    -0.17670
C2262       C  0.90472105  0.83976992  0.29009509     0.10720
S2263       S  0.85629266  0.89845205  0.22783136    -0.32630
S2264       S  0.92446003  0.81967570  0.31716044    -0.32640
H2265       H  0.95442350  0.80410027  0.30017212     0.28730
H2266       H  0.82378906  0.91167039  0.24534717     0.28720
H2267       H  0.93346072  0.86404937  0.22918627     0.19320
H2268       H  0.84215153  0.84964305  0.31210898     0.19320
C2269       C  0.42939618  0.84219924  0.27267703    -0.06510
C2270       C  0.42437452  0.86935319  0.27335727    -0.17640
C2271       C  0.38218492  0.88231649  0.26821855     0.10690
C2272       C  0.34207212  0.86828950  0.26330897    -0.06430
C2273       C  0.34739695  0.84117645  0.26115790    -0.17670
C2274       C  0.38977589  0.82811269  0.26630586     0.10720
S2275       S  0.38209618  0.91659438  0.26793926    -0.32630
S2276       S  0.38983719  0.79378689  0.26629122    -0.32640
H2277       H  0.42408630  0.79132233  0.28683806     0.28730
H2278       H  0.34825959  0.92047382  0.28874911     0.28720
H2279       H  0.45372421  0.88101458  0.27881539     0.19320
H2280       H  0.31759564  0.82967929  0.25678763     0.19320
C2281       C  0.99287635  0.51112964  0.28657544    -0.06510
C2282       C  0.00258198  0.50060687  0.25975490    -0.17640
C2283       C  0.03534245  0.98046235  0.25514981     0.10690
C2284       C  0.05937398  0.97016302  0.27777287    -0.06430
C2285       C  0.05014231  0.98084982  0.30460225    -0.17670
C2286       C  0.01763345  0.50124979  0.30917374     0.10720
S2287       S  0.04501074  0.96857593  0.21981527    -0.32630
S2288       S  0.00894949  0.51374360  0.34433561    -0.32640
H2289       H  0.96396844  0.52404618  0.34033898     0.28730
H2290       H  0.09097415  0.95974207  0.22386659     0.28720
H2291       H  0.98571550  0.50881901  0.24205523     0.19320
H2292       H  0.06710171  0.97262999  0.32225012     0.19320
C2293       C  0.72263898  0.74510805  0.26838210    -0.06510
C2294       C  0.74940573  0.73989422  0.29179547    -0.17640
C2295       C  0.79482600  0.73041427  0.28902560     0.10690
C2296       C  0.81268272  0.72363639  0.26242171    -0.06430
C2297       C  0.78593155  0.72867781  0.23895401    -0.17670
C2298       C  0.74101820  0.73908825  0.24169309     0.10720
S2299       S  0.82771162  0.72572664  0.32028952    -0.32630
S2300       S  0.70970063  0.74600979  0.21044682    -0.32640
H2301       H  0.66538979  0.74631410  0.22261265     0.28730
H2302       H  0.87153973  0.72587740  0.30755989     0.28720
H2303       H  0.73670860  0.74597310  0.31231379     0.19320
H2304       H  0.79862664  0.72245468  0.21848950     0.19320
C2305       C  0.45833802  0.98348932  0.25553946    -0.06510
C2306       C  0.46089888  0.97787055  0.28356766    -0.17640
C2307       C  0.49880210  0.96391370  0.29355263     0.10690
C2308       C  0.53522061  0.95584726  0.27531250    -0.06430
C2309       C  0.53227916  0.96125941  0.24728071    -0.17670
C2310       C  0.49335443  0.97403627  0.23708596     0.10720
S2311       S  0.49772694  0.95480025  0.32912062    -0.32630
S2312       S  0.48841493  0.97618893  0.20007924    -0.32640
H2313       H  0.43981861  0.97982385  0.19966962     0.28730
H2314       H  0.54625401  0.95240587  0.33207926     0.28720
H2315       H  0.43409789  0.98510206  0.29786852     0.19320
H2316       H  0.55801293  0.95313381  0.23272314     0.19320
C2317       C  0.27909850  0.69793198  0.27918216    -0.06510
C2318       C  0.24029886  0.69956522  0.26125732    -0.17640
C2319       C  0.21566671  0.72267922  0.25713924     0.10690
C2320       C  0.22916967  0.74544272  0.27141447    -0.06430
C2321       C  0.26790196  0.74393751  0.28944721    -0.17670
C2322       C  0.29233428  0.72066812  0.29372847     0.10720
S2323       S  0.16921752  0.72196427  0.23203362    -0.32630
S2324       S  0.33882041  0.72118217  0.31875618    -0.32640
H2325       H  0.33124412  0.69670566  0.32805277     0.28730
H2326       H  0.17809310  0.74581565  0.22152211     0.28720
H2327       H  0.22995692  0.68272095  0.24931655     0.19320
H2328       H  0.27899599  0.76112380  0.30067309     0.19320
C2329       C  0.58317359  0.60560637  0.27372989    -0.06510
C2330       C  0.60681778  0.58257100  0.28103146    -0.17640
C2331       C  0.65628693  0.57954668  0.28238294     0.10690
C2332       C  0.68513686  0.59976031  0.27580149    -0.06430
C2333       C  0.66076562  0.62306801  0.26958587    -0.17670
C2334       C  0.61168594  0.62601406  0.26815007     0.10720
S2335       S  0.68008071  0.54922925  0.29196549    -0.32630
S2336       S  0.58787705  0.65597767  0.25721278    -0.32640
H2337       H  0.55408371  0.64509102  0.23956281     0.28730
H2338       H  0.71121175  0.55992646  0.31144086     0.28720
H2339       H  0.58630442  0.56632312  0.28548367     0.19320
H2340       H  0.68001847  0.63966089  0.26481523     0.19320
C2341       C  0.15749038  0.55579298  0.24553081    -0.06510
C2342       C  0.14242492  0.54978279  0.21801696    -0.17640
C2343       C  0.09479448  0.55252435  0.21038077     0.10690
C2344       C  0.06231791  0.56299765  0.23010940    -0.06430
C2345       C  0.07801889  0.56660465  0.25770523    -0.17670
C2346       C  0.12362009  0.56200302  0.26571569     0.10720
S2347       S  0.07812069  0.54408550  0.17522984    -0.32630
S2348       S  0.13725793  0.56645819  0.30209950    -0.32640
H2349       H  0.17282361  0.54750764  0.30117333     0.28730
H2350       H  0.03242658  0.53803541  0.18185668     0.28720
H2351       H  0.16790023  0.54427864  0.20217750     0.19320
H2352       H  0.05601106  0.57591271  0.27322268     0.19320
C2353       C  0.97383137  0.84383135  0.40534651    -0.06510
C2354       C  0.94879078  0.85786822  0.38597067    -0.17640
C2355       C  0.97048418  0.87015217  0.36456118     0.10690
C2356       C  0.01917383  0.86797715  0.36167665    -0.06430
C2357       C  0.04393982  0.85247858  0.37995265    -0.17670
C2358       C  0.02191652  0.84033028  0.40131921     0.10720
S2359       S  0.93517824  0.89174811  0.34508596    -0.32630
S2360       S  0.05583346  0.82157988  0.42457839    -0.32640
H2361       H  0.09974729  0.82631608  0.41359026     0.28730
H2362       H  0.94462930  0.87907778  0.31940721     0.28720
H2363       H  0.91248270  0.86132183  0.38900961     0.19320
H2364       H  0.08107145  0.85024840  0.37792869     0.19320
C2365       C  0.99077708  0.85659088  0.18620630    -0.06510
C2366       C  0.99751427  0.83016638  0.18024207    -0.17640
C2367       C  0.97452780  0.81769064  0.15811505     0.10690
C2368       C  0.94290434  0.83167590  0.14231107    -0.06430
C2369       C  0.93189635  0.85724298  0.15085974    -0.17670
C2370       C  0.95623720  0.87005925  0.17211048     0.10720
S2371       S  0.99026585  0.78483030  0.14916361    -0.32630
S2372       S  0.94675506  0.90408827  0.17717935    -0.32640
H2373       H  0.96252089  0.90609011  0.20474781     0.28730
H2374       H  0.95040233  0.77972108  0.13315929     0.28720
H2375       H  0.02400436  0.81967965  0.19131266     0.19320
H2376       H  0.90866600  0.86845333  0.13864500     0.19320
C2377       C  0.79442676  0.84886383  0.36052600    -0.06510
C2378       C  0.80410034  0.83284056  0.38201214    -0.17640
C2379       C  0.82266751  0.84235814  0.40717898     0.10690
C2380       C  0.83505491  0.86836374  0.41066972    -0.06430
C2381       C  0.82941238  0.88398660  0.38834495    -0.17670
C2382       C  0.80856157  0.87466972  0.36352001     0.10720
S2383       S  0.82406798  0.82172065  0.43592933    -0.32630
S2384       S  0.79504798  0.89707804  0.33751956    -0.32640
H2385       H  0.82234909  0.91699561  0.34842148     0.28730
H2386       H  0.81291255  0.79898860  0.42099477     0.28720
H2387       H  0.79160740  0.81356988  0.38028835     0.19320
H2388       H  0.83790177  0.90389785  0.39118463     0.19320
C2389       C  0.77528205  0.85060015  0.18844346    -0.06510
C2390       C  0.78043859  0.87687660  0.18514063    -0.17640
C2391       C  0.80131293  0.88594483  0.16153813     0.10690
C2392       C  0.81469842  0.86843699  0.13979415    -0.06430
C2393       C  0.81033984  0.84210250  0.14351301    -0.17670
C2394       C  0.79194853  0.83303539  0.16768782     0.10720
S2395       S  0.80368371  0.91989439  0.15869851    -0.32630
S2396       S  0.78444592  0.79916076  0.16900983    -0.32640
H2397       H  0.78863224  0.79852007  0.19797291     0.28730
H2398       H  0.85109019  0.91915322  0.15180955     0.28720
H2399       H  0.76555627  0.89056371  0.20046876     0.19320
H2400       H  0.81870497  0.82830518  0.12675081     0.19320
C2401       C  0.45751896  0.82041027  0.41115383    -0.06510
C2402       C  0.50096655  0.83073792  0.41683828    -0.17640
C2403       C  0.52217751  0.84734544  0.39927250     0.10690
C2404       C  0.50097903  0.85301904  0.37360724    -0.06430
C2405       C  0.45965378  0.84019941  0.36643937    -0.17670
C2406       C  0.43914992  0.82328198  0.38438316     0.10720
S2407       S  0.57563488  0.86132855  0.41135973    -0.32630
S2408       S  0.39758124  0.80157762  0.36973283    -0.32640
H2409       H  0.40145199  0.78366884  0.39032629     0.28730
H2410       H  0.58961566  0.84148898  0.42832352     0.28720
H2411       H  0.51829715  0.82616450  0.43576273     0.19320
H2412       H  0.44451448  0.84205722  0.34608112     0.19320
C2413       C  0.47360488  0.84452541  0.13437143    -0.06510
C2414       C  0.46341923  0.82913100  0.15634132    -0.17640
C2415       C  0.47129718  0.83749982  0.18415630     0.10690
C2416       C  0.48752484  0.86235125  0.19040624    -0.06430
C2417       C  0.49257988  0.87855459  0.16865148    -0.17670
C2418       C  0.48874091  0.86979999  0.14097867     0.10720
S2419       S  0.46519010  0.81521718  0.21076999    -0.32630
S2420       S  0.50781818  0.89127858  0.11533486    -0.32640
H2421       H  0.50427911  0.91404082  0.13203188     0.28730
H2422       H  0.44339766  0.79608161  0.19441816     0.28720
H2423       H  0.45146502  0.81004644  0.15158654     0.19320
H2424       H  0.50586255  0.89738965  0.17336164     0.19320
C2425       C  0.32555812  0.85109253  0.40508527    -0.06510
C2426       C  0.33931270  0.86584049  0.38356822    -0.17640
C2427       C  0.32717597  0.85916419  0.35625028     0.10690
C2428       C  0.30198340  0.83700138  0.34973849    -0.06430
C2429       C  0.29242861  0.82086961  0.37088067    -0.17670
C2430       C  0.30313275  0.82755734  0.39845099     0.10720
S2431       S  0.34070144  0.88094279  0.33078745    -0.32630
S2432       S  0.28608295  0.80550251  0.42401148    -0.32640
H2433       H  0.27736844  0.78450186  0.40561392     0.28730
H2434       H  0.36688767  0.86119220  0.31712266     0.28720
H2435       H  0.35729013  0.88341196  0.38813357     0.19320
H2436       H  0.27185105  0.80426376  0.36603386     0.19320
C2437       C  0.35387078  0.87752590  0.13935829    -0.06510
C2438       C  0.35779842  0.85122269  0.14420053    -0.17640
C2439       C  0.33087604  0.83992700  0.16410904     0.10690
C2440       C  0.29806341  0.85510690  0.17931247    -0.06430
C2441       C  0.29778439  0.88182208  0.17676903    -0.17670
C2442       C  0.32514066  0.89307131  0.15706212     0.10720
S2443       S  0.33525657  0.80584159  0.16634955    -0.32630
S2444       S  0.31904940  0.92700861  0.15373777    -0.32640
H2445       H  0.36152964  0.92945283  0.13993549     0.28730
H2446       H  0.33498639  0.80679552  0.19551249     0.28720
H2447       H  0.37838050  0.83865770  0.13062765     0.19320
H2448       H  0.27373531  0.89395689  0.18910676     0.19320
C2449       C  0.60191010  0.84650204  0.04776084    -0.06510
C2450       C  0.62120806  0.85372097  0.07360078    -0.17640
C2451       C  0.66849555  0.84875189  0.07849237     0.10690
C2452       C  0.69474645  0.83499974  0.05787141    -0.06430
C2453       C  0.67390126  0.82516553  0.03383601    -0.17670
C2454       C  0.62933654  0.83277109  0.02754280     0.10720
S2455       S  0.69580185  0.86105996  0.10987934    -0.32630
S2456       S  0.61348063  0.82913104  0.49163827    -0.32640
H2457       H  0.62595554  0.85421569  0.48675468     0.28730
H2458       H  0.65678980  0.87518629  0.12026749     0.28720
H2459       H  0.59982149  0.86366315  0.08936915     0.19320
H2460       H  0.69503620  0.81549085  0.51763576     0.19320
C2461       C  0.19093881  0.84911321  0.48810515    -0.06510
C2462       C  0.16114221  0.82879411  0.48778612    -0.17640
C2463       C  0.11338318  0.83350133  0.48792668     0.10690
C2464       C  0.09581107  0.85906999  0.48785817    -0.06430
C2465       C  0.12572575  0.87889372  0.98372962    -0.17670
C2466       C  0.17368270  0.87410096  0.98395167     0.10720
S2467       S  0.07562968  0.80694808  0.49159169    -0.32630
S2468       S  0.21268341  0.90014087  0.98111825    -0.32640
H2469       H  0.17847359  0.91895227  0.97582637     0.28730
H2470       H  0.10978132  0.78734899  0.48781004     0.28720
H2471       H  0.17518238  0.80969241  0.49043041     0.19320
H2472       H  0.11187566  0.89827808  0.98333578     0.19320
C2473       C  0.49051200  0.55416865  0.34528885    -0.06510
C2474       C  0.51100577  0.57788879  0.35000371    -0.17640
C2475       C  0.51868863  0.58844194  0.37696912     0.10690
C2476       C  0.51120833  0.57413607  0.40075976    -0.06430
C2477       C  0.49150682  0.55016192  0.39630019    -0.17670
C2478       C  0.48020167  0.54039559  0.36924520     0.10720
S2479       S  0.53473439  0.62139718  0.37953301    -0.32630
S2480       S  0.45347506  0.50985280  0.36703279    -0.32640
H2481       H  0.46703546  0.50415955  0.33958833     0.28730
H2482       H  0.51524681  0.62679885  0.40598978     0.28720
H2483       H  0.51779972  0.58941920  0.33260535     0.19320
H2484       H  0.48605265  0.53859365  0.41387916     0.19320
C2485       C  0.49692899  0.57617616  0.09455490    -0.06510
C2486       C  0.50478913  0.55399500  0.10936390    -0.17640
C2487       C  0.49424759  0.55346404  0.13786889     0.10690
C2488       C  0.47742002  0.57589605  0.15244916    -0.06430
C2489       C  0.47141894  0.59815929  0.13761179    -0.17670
C2490       C  0.47914449  0.59826854  0.10908975     0.10720
S2491       S  0.50092626  0.52352022  0.15391576    -0.32630
S2492       S  0.46701473  0.62766749  0.09265773    -0.32640
H2493       H  0.44599287  0.61605576  0.06912118     0.28730
H2494       H  0.51990203  0.03398023  0.17865947     0.28720
H2495       H  0.52002893  0.53707986  0.09871440     0.19320
H2496       H  0.45774028  0.61552483  0.14817471     0.19320
C2497       C  0.77077640  0.63956456  0.41949267    -0.06510
C2498       C  0.76507905  0.62216829  0.39640532    -0.17640
C2499       C  0.76614856  0.62958384  0.36889644     0.10690
C2500       C  0.78404777  0.65338050  0.36283574    -0.06430
C2501       C  0.79438063  0.67029298  0.38584615    -0.17670
C2502       C  0.78576355  0.66417653  0.41374651     0.10720
S2503       S  0.73907409  0.60934617  0.34262351    -0.32630
S2504       S  0.79247841  0.68875299  0.44074564    -0.32640
H2505       H  0.80738539  0.67204185  0.46097516     0.28730
H2506       H  0.73305016  0.58800074  0.35852018     0.28720
H2507       H  0.75284850  0.60334473  0.40012639     0.19320
H2508       H  0.80865528  0.68863627  0.38203127     0.19320
C2509       C  0.74792186  0.63003094  0.11411177    -0.06510
C2510       C  0.77560669  0.65063381  0.12247377    -0.17640
C2511       C  0.79335636  0.65303285  0.14976954     0.10690
C2512       C  0.78267177  0.63475079  0.16920376    -0.06430
C2513       C  0.75499135  0.61446525  0.16089569    -0.17670
C2514       C  0.73817897  0.61157726  0.13381898     0.10720
S2515       S  0.83004411  0.67948025  0.15856786    -0.32630
S2516       S  0.70706230  0.58282651  0.12449990    -0.32640
H2517       H  0.70082455  0.57464506  0.15149431     0.28730
H2518       H  0.82255302  0.67985764  0.18737034     0.28720
H2519       H  0.78258744  0.66512599  0.10799404     0.19320
H2520       H  0.74921241  0.59975787  0.17533229     0.19320
C2521       C  0.53179674  0.00400967  0.02260281    -0.06510
C2522       C  0.48699255  0.00052625  0.01163968    -0.17640
C2523       C  0.46179083  0.97885720  0.01636856     0.10690
C2524       C  0.48221484  0.95876750  0.03115168    -0.06430
C2525       C  0.52604493  0.96249869  0.04330252    -0.17670
C2526       C  0.55033100  0.98504581  0.03987416     0.10720
S2527       S  0.40293577  0.97855356  0.50345958    -0.32630
S2528       S  0.60351867  0.98866266  0.05909763    -0.32640
H2529       H  0.59303618  0.01414547  0.06802323     0.28730
H2530       H  0.38552051  0.96518724  0.52552511     0.28720
H2531       H  0.47082804  0.51495939  0.49925282     0.19320
H2532       H  0.54184894  0.94762438  0.05524787     0.19320
C2533       C  0.72253597  0.71691977  0.02212622    -0.06510
C2534       C  0.75321035  0.71925340  0.04486431    -0.17640
C2535       C  0.78677099  0.73815135  0.04686335     0.10690
C2536       C  0.79037328  0.75560337  0.02568033    -0.06430
C2537       C  0.75906001  0.75365662  0.00320410    -0.17670
C2538       C  0.72515435  0.73483463  0.00138192     0.10720
S2539       S  0.82597889  0.73775199  0.07603921    -0.32630
S2540       S  0.68835482  0.73351872  0.47120632    -0.32640
H2541       H  0.64725157  0.73165685  0.48651265     0.28730
H2542       H  0.86510005  0.74491416  0.06123820     0.28720
H2543       H  0.75250358  0.70534516  0.06067633     0.19320
H2544       H  0.76065201  0.76712464  0.48699227     0.19320
C2545       C  0.05886009  0.62420756  0.36369368    -0.06510
C2546       C  0.06760897  0.65006587  0.37020058    -0.17640
C2547       C  0.08458876  0.65795301  0.39630616     0.10690
C2548       C  0.09398207  0.63929685  0.41555914    -0.06430
C2549       C  0.09217884  0.61329497  0.40712687    -0.17670
C2550       C  0.07469833  0.60548568  0.38140463     0.10720
S2551       S  0.08825338  0.69178482  0.40439187    -0.32630
S2552       S  0.06531847  0.57187357  0.37510655    -0.32640
H2553       H  0.06909429  0.57160497  0.34619208     0.28730
H2554       H  0.08146152  0.69145000  0.43313869     0.28720
H2555       H  0.05599608  0.66439954  0.35614663     0.19320
H2556       H  0.09957490  0.59887177  0.42191885     0.19320
C2557       C  0.06697130  0.63255681  0.12823030    -0.06510
C2558       C  0.09253676  0.63059578  0.10573043    -0.17640
C2559       C  0.12603568  0.61330471  0.09623724     0.10690
C2560       C  0.14133742  0.59728600  0.11658780    -0.06430
C2561       C  0.11926066  0.59861403  0.14324399    -0.17670
C2562       C  0.07969439  0.61530965  0.14824519     0.10720
S2563       S  0.12510996  0.62017678  0.05088810    -0.32630
S2564       S  0.04925615  0.61569110  0.18015026    -0.32640
H2565       H  0.02566413  0.63917912  0.17662894     0.28730
H2566       H  0.12837441  0.60531945  0.03005622     0.28720
H2567       H  0.08258703  0.64095233  0.08899142     0.19320
H2568       H  0.12946354  0.58515496  0.15847879     0.19320
C2569       C  0.23106547  0.59667201  0.36454345    -0.06510
C2570       C  0.22357944  0.62120217  0.37628418    -0.17640
C2571       C  0.21017576  0.62506497  0.40383749     0.10690
C2572       C  0.20183306  0.60346042  0.41963911    -0.06430
C2573       C  0.20525347  0.57890762  0.40665999    -0.17670
C2574       C  0.22023199  0.57527242  0.37935969     0.10720
S2575       S  0.20737647  0.65780421  0.41774212    -0.32630
S2576       S  0.22676137  0.54289622  0.36511281    -0.32640
H2577       H  0.22760532  0.54890469  0.33717047     0.28730
H2578       H  0.20367620  0.66953541  0.39224254     0.28720
H2579       H  0.23284366  0.63738410  0.36461004     0.19320
H2580       H  0.19796843  0.56227573  0.41810147     0.19320
C2581       C  0.20029971  0.63705335  0.22752128    -0.06510
C2582       C  0.18874741  0.63609155  0.25587267    -0.17640
C2583       C  0.14463081  0.64226980  0.26622040     0.10690
C2584       C  0.10899162  0.64839378  0.24786253    -0.06430
C2585       C  0.12072152  0.65284345  0.22011255    -0.17670
C2586       C  0.16607950  0.64702999  0.20967396     0.10720
S2587       S  0.13349683  0.64141316  0.30305592    -0.32630
S2588       S  0.17686260  0.65095337  0.17346987    -0.32640
H2589       H  0.20633671  0.62928463  0.16950540     0.28730
H2590       H  0.17114249  0.62516434  0.30907566     0.28720
H2591       H  0.21336917  0.62853493  0.27015107     0.19960
H2592       H  0.09380742  0.65889291  0.20601827     0.19320
C2593       C  0.98418833  0.96736090  0.02528810    -0.06510
C2594       C  0.98122663  0.48208110  0.05071240    -0.17640
C2595       C  0.00774218  0.50377010  0.05634610     0.10690
C2596       C  0.03806818  0.51218066  0.03591605    -0.06430
C2597       C  0.04080155  0.49769961  0.51037187    -0.17670
C2598       C  0.01443926  0.97585645  0.50479206     0.10720
S2599       S  0.00210395  0.51897938  0.09059788    -0.32630
S2600       S  0.02137917  0.96004741  0.47098061    -0.32640
H2601       H  0.97355719  0.96156988  0.46501120     0.28730
H2602       H  0.05030620  0.52103687  0.09452331     0.28720
H2603       H  0.95868682  0.47638084  0.06705866     0.19320
H2604       H  0.06298630  0.00373614  0.49401354     0.19320
C2605       C  0.92250754  0.57337568  0.03833565    -0.06510
C2606       C  0.89252511  0.57513533  0.06112501    -0.17640
C2607       C  0.84495926  0.57123053  0.05734456     0.10690
C2608       C  0.82738774  0.56589325  0.03042322    -0.06430
C2609       C  0.85833787  0.56034986  0.00855268    -0.17670
C2610       C  0.90594804  0.56336702  0.01244648     0.10720
S2611       S  0.80610287  0.57556006  0.08636379    -0.32630
S2612       S  0.94358921  0.55578745  0.48320750    -0.32640
H2613       H  0.98198819  0.54890963  0.49950584     0.28730
H2614       H  0.84003930  0.58041376  0.10682513     0.28720
H2615       H  0.90543046  0.58197457  0.08117236     0.19320
H2616       H  0.84513864  0.55571839  0.48790300     0.19320
C2617       C  0.32431044  0.65316683  0.51039423    -0.06510
C2618       C  0.35269443  0.66685417  0.02916895    -0.17640
C2619       C  0.40089868  0.66751249  0.02506989     0.10690
C2620       C  0.42123665  0.65379132  0.00187591    -0.06430
C2621       C  0.39202927  0.64224755  0.48191193    -0.17670
C2622       C  0.34409988  0.64196624  0.48580705     0.10720
S2623       S  0.43422147  0.68472350  0.05110083    -0.32630
S2624       S  0.31069025  0.62438798  0.46027010    -0.32640
H2625       H  0.28115872  0.64557389  0.45606753     0.28730
H2626       H  0.47007299  0.66623492  0.05233767     0.28720
H2627       H  0.33757392  0.67591272  0.04787427     0.19320
H2628       H  0.40707706  0.63176442  0.46398603     0.19320
C2629       C  0.26472187  0.76212266  0.51949869    -0.06510
C2630       C  0.24051098  0.75474189  0.49511313    -0.17640
C2631       C  0.19987656  0.74098113  0.49598536     0.10690
C2632       C  0.18345950  0.73331313  0.52169136    -0.06430
C2633       C  0.20432585  0.74286036  0.04615287    -0.17670
C2634       C  0.24435783  0.75733826  0.04552810     0.10720
S2635       S  0.17125612  0.73300279  0.46349499    -0.32630
S2636       S  0.26845398  0.76856933  0.07847300    -0.32640
H2637       H  0.23070140  0.76286630  0.09527300     0.28730
H2638       H  0.12737064  0.72961149  0.47527691     0.28720
H2639       H  0.25337891  0.75945327  0.47499744     0.19320
H2640       H  0.19160388  0.73709881  0.06589918     0.19320
O2641       O  0.13068418  0.70736668  0.54478719    -0.75680
O2642       O  0.16687812  0.69229354  0.00483876    -0.54580
C2643       C  0.15687243  0.70989775  0.02343484     0.78050
O2644       O  0.19135490  0.57552413  0.58842636    -0.60280
O2645       O  0.11950583  0.56413182  0.59483785    -0.53310
C2646       C  0.15614850  0.57420239  0.60469743     0.70070
O2647       O  0.27141779  0.63382601  0.53956991    -0.74840
O2648       O  0.24297070  0.65565800  0.00334195    -0.55400
C2649       C  0.27640697  0.64757293  0.01847274     0.76070
O2650       O  0.02028219  0.65959423  0.60026756    -0.59980
O2651       O  0.00859089  0.61791048  0.60304917    -0.53100
C2652       C  0.02161305  0.63886208  0.61522559     0.72660
Zr2653     Zr  0.08770313  0.67300356  0.56497578     2.54710
O2654       O  0.09548662  0.69779372  0.60872852    -0.80550
O2655       O  0.03714125  0.70949453  0.55468372    -0.93960
Zr2656     Zr  0.20695004  0.61674134  0.56528170     2.64680
O2657       O  0.23086137  0.62837277  0.61269546    -0.98920
O2658       O  0.28949124  0.60659477  0.57036557    -0.80980
O2659       O  0.17106593  0.65930740  0.55083280    -0.84340
O2660       O  0.15011744  0.64985755  0.58338781    -2.19050
O2661       O  0.97473400  0.60108504  0.01985005    -0.67730
O2662       O  0.99356539  0.58426145  0.56111728    -0.52290
C2663       C  0.96649241  0.58700058  0.54011453     0.71040
O2664       O  0.16765893  0.58693551  0.95947062    -0.60630
O2665       O  0.19683305  0.62668431  0.96235948    -0.52610
C2666       C  0.18821390  0.60575069  0.94906935     0.72850
O2667       O  0.09500911  0.54013411  0.02035242    -0.72030
O2668       O  0.05198734  0.55385199  0.55809508    -0.50710
C2669       C  0.06405257  0.53669658  0.53895135     0.74230
O2670       O  0.06203369  0.63315191  0.95807593    -0.67360
O2671       O  0.12697476  0.65651843  0.95762569    -0.54560
C2672       C  0.09380822  0.64451969  0.94550717     0.72610
Zr2673     Zr  0.03537318  0.62802952  0.00441324     2.77540
O2674       O  0.97330602  0.61934854  0.97107411    -0.98110
O2675       O  0.98708739  0.66697049  0.00667829    -0.78930
Zr2676     Zr  0.14244956  0.57474556  0.00526124     2.70070
O2677       O  0.13323769  0.54108123  0.96919971    -0.80180
O2678       O  0.21460647  0.55060531  0.01215481    -0.99260
Zr2679     Zr  0.16095207  0.64696917  0.00215594     2.21500
Zr2680     Zr  0.07223765  0.59839997  0.57126891     2.11130
O2681       O  0.06411778  0.58870444  0.02103005    -2.47950
O2682       O  0.10982625  0.61355253  0.98759442    -0.79970
O2683       O  0.03711014  0.63730447  0.55266747    -0.72160
O2684       O  0.19880899  0.60778865  0.01607975    -2.33120
O2685       O  0.08466925  0.66231399  0.01615949    -2.29330
O2686       O  0.15472309  0.57746269  0.55509295    -0.73920
H2687       H  0.15912885  0.65696577  0.60159012     0.78070
H2688       H  0.22796118  0.60373659  0.00678142     0.79160
H2689       H  0.04296905  0.57593241  0.01448697     0.81390
H2690       H  0.07582076  0.67704772  0.00597146     0.78990
H2691       H  0.29115983  0.58788734  0.57213136     0.42030
H2692       H  0.20490808  0.53281047  0.51373387     0.41000
H2693       H  0.10314203  0.54530793  0.96032824     0.40680
H2694       H  0.98609497  0.60566667  0.95810996     0.38610
H2695       H  0.96336050  0.66401716  0.02087311     0.41740
H2696       H  0.04205275  0.71255996  0.53485237     0.36530
H2697       H  0.12420146  0.70738708  0.60653646     0.42640
H2698       H  0.24653629  0.61287289  0.61952452     0.39060
H2699       H  0.97060068  0.63461371  0.95990636     0.43980
H2700       H  0.05045434  0.72438759  0.56495577     0.42700
H2701       H  0.25597963  0.64061852  0.61077685     0.42840
H2702       H  0.23059275  0.55049753  0.99400422     0.43190
O2703       O  0.50322250  0.66161860  0.50386756    -0.75680
O2704       O  0.47680871  0.62079542  0.49865910    -0.54580
C2705       C  0.47057623  0.64518510  0.50115959     0.78050
O2706       O  0.70440893  0.62393247  0.93658305    -0.60280
O2707       O  0.75424741  0.63667077  0.97064892    -0.53310
C2708       C  0.74246341  0.63345156  0.94452573     0.70070
O2709       O  0.57453851  0.59045210  0.92485841    -0.74840
O2710       O  0.51500228  0.57937837  0.95225176    -0.55400
C2711       C  0.53411170  0.58176167  0.92802137     0.76070
O2712       O  0.65277196  0.69237892  0.51352067    -0.59980
O2713       O  0.72356120  0.67243360  0.51961376    -0.53100
C2714       C  0.69739092  0.69249775  0.51802978     0.72660
Zr2715     Zr  0.58943090  0.66068916  0.50625235     2.54710
O2716       O  0.57688430  0.68613630  0.96604154    -0.80550
O2717       O  0.56298946  0.69516486  0.53871967    -0.93960
Zr2718     Zr  0.63639134  0.60662174  0.95295217     2.64680
O2719       O  0.61713506  0.63659506  0.91754499    -0.98920
O2720       O  0.67184727  0.57463677  0.92060195    -0.80980
O2721       O  0.57049169  0.62505486  0.47564198    -0.84340
O2722       O  0.65482652  0.64256567  0.48216642    -2.19050
O2723       O  0.68003965  0.62317424  0.59026212    -0.67730
O2724       O  0.74081990  0.63357953  0.56351822    -0.52290
C2725       C  0.72200261  0.62939735  0.58729827     0.71040
O2726       O  0.60066453  0.52900449  0.51875292    -0.60630
O2727       O  0.52983487  0.54651698  0.50799404    -0.52610
C2728       C  0.55598115  0.52797728  0.51610769     0.72850
O2729       O  0.74724981  0.55835061  0.52151235    -0.72030
O2730       O  0.77538348  0.59863570  0.52039255    -0.50710
C2731       C  0.78007164  0.57456661  0.52351207     0.74230
O2732       O  0.56542782  0.57669161  0.56904066    -0.67360
O2733       O  0.50057736  0.58429065  0.54520559    -0.54560
C2734       C  0.52135221  0.57849141  0.56788117     0.72610
Zr2735     Zr  0.61183736  0.61366872  0.56455495     2.77540
O2736       O  0.59541844  0.60606013  0.61303652    -0.98110
O2737       O  0.56766803  0.64970090  0.58602604    -0.78930
Zr2738     Zr  0.66307282  0.55960160  0.51188003     2.70070
O2739       O  0.68507020  0.53009313  0.54718946    -0.80180
O2740       O  0.68550927  0.52930275  0.97404218    -0.99260
Zr2741     Zr  0.54175594  0.59116224  0.50117879     2.21500
Zr2742     Zr  0.71046641  0.62765382  0.51479231     2.11130
O2743       O  0.67946352  0.59535756  0.54226116    -2.47950
O2744       O  0.59714148  0.57798581  0.53453057    -0.79970
O2745       O  0.64403031  0.64606325  0.53918887    -0.72160
O2746       O  0.60853065  0.57281549  0.47795610    -2.33120
O2747       O  0.55762751  0.62772165  0.53193030    -2.29330
O2748       O  0.69315008  0.59169736  0.48445157    -0.73920
H2749       H  0.66759406  0.65578617  0.97157673     0.78070
H2750       H  0.60042364  0.55846817  0.96572996     0.79160
H2751       H  0.70148675  0.58932070  0.55568902     0.81390
H2752       H  0.52988684  0.63354327  0.54177200     0.78990
H2753       H  0.65735866  0.55844744  0.92488589     0.42030
H2754       H  0.71375125  0.53641468  0.96617142     0.41000
H2755       H  0.67735108  0.53952424  0.56497722     0.40680
H2756       H  0.60851643  0.58881161  0.61616186     0.38610
H2757       H  0.59157842  0.66142287  0.59337260     0.41740
H2758       H  0.54417439  0.68687410  0.55258135     0.36530
H2759       H  0.55584793  0.67595628  0.95391270     0.42640
H2760       H  0.63036367  0.65299013  0.92421751     0.39060
H2761       H  0.61475553  0.61785105  0.62443771     0.43980
H2762       H  0.54022267  0.70529784  0.52813128     0.42700
H2763       H  0.63630061  0.63085378  0.90125109     0.42840
H2764       H  0.69692448  0.51398310  0.48339487     0.43190
O2765       O  0.33159270  0.78270939  0.53881617    -0.75680
O2766       O  0.31881015  0.78378079  0.99258126    -0.54580
C2767       C  0.30818565  0.77657699  0.01675981     0.78050
O2768       O  0.33008508  0.88608632  0.59449673    -0.60280
O2769       O  0.40794071  0.88401580  0.60276143    -0.53310
C2770       C  0.36514057  0.88494459  0.61090876     0.70070
O2771       O  0.24886272  0.85791129  0.52026641    -0.74840
O2772       O  0.26532878  0.82978600  0.98349845    -0.55400
C2773       C  0.23800117  0.84494024  0.99798264     0.76070
O2774       O  0.43577260  0.81777500  0.59850217    -0.59980
O2775       O  0.48675429  0.84612188  0.58642466    -0.53100
C2776       C  0.46572735  0.83498035  0.60501301     0.72660
Zr2777     Zr  0.40312959  0.80486252  0.55177399     2.54710
O2778       O  0.38682145  0.77429907  0.58645735    -0.80550
O2779       O  0.46026993  0.77088211  0.53995149    -0.93960
Zr2780     Zr  0.31694184  0.86657330  0.54836043     2.64680
O2781       O  0.26597348  0.84356191  0.57782688    -0.98920
O2782       O  0.26951424  0.90571714  0.55275241    -0.80980
O2783       O  0.33552656  0.82411171  0.53236399    -0.84340
O2784       O  0.38343679  0.84713945  0.56702193    -2.19050
O2785       O  0.53331288  0.83130035  0.52985224    -0.67730
O2786       O  0.52995772  0.87010924  0.55250879    -0.52290
C2787       C  0.55247736  0.85007107  0.54275213     0.71040
O2788       O  0.36737479  0.87559734  0.94077776    -0.60630
O2789       O  0.30995988  0.85072771  0.95213222    -0.52610
C2790       C  0.33424656  0.86032730  0.93402509     0.72850
O2791       O  0.43922842  0.92654211  0.50827910    -0.72030
O2792       O  0.46649717  0.91883916  0.55161874    -0.50710
C2793       C  0.46104810  0.93313548  0.53071810     0.74230
O2794       O  0.45647337  0.80245301  0.95536496    -0.67360
O2795       O  0.38813793  0.81364313  0.93833334    -0.54560
C2796       C  0.43221679  0.80982218  0.93510386     0.72610
Zr2797     Zr  0.47822793  0.83210450  0.99279575     2.77540
O2798       O  0.52782514  0.86029124  0.96810976    -0.98110
O2799       O  0.53343704  0.79824245  0.97757126    -0.78930
Zr2800     Zr  0.39266888  0.89252866  0.98761957     2.70070
O2801       O  0.42839460  0.91753514  0.95281714    -0.80180
O2802       O  0.32786734  0.92327348  0.98580277    -0.99260
Zr2803     Zr  0.34885387  0.82485372  0.98371641     2.21500
Zr2804     Zr  0.44578850  0.87430970  0.55708479     2.11130
O2805       O  0.46010296  0.87499199  0.50849023    -2.47950
O2806       O  0.41217768  0.85024361  0.97179646    -0.79970
O2807       O  0.46409782  0.83137986  0.54073301    -0.72160
O2808       O  0.33086624  0.86791631  0.00049579    -2.33120
O2809       O  0.41617023  0.80491206  0.00320831    -2.29330
O2810       O  0.37848448  0.89328064  0.53663277    -0.73920
H2811       H  0.37596184  0.84486014  0.58595488     0.78070
H2812       H  0.30436945  0.87617134  0.99222790     0.79160
H2813       H  0.48601446  0.88580553  0.00600818     0.81390
H2814       H  0.42052835  0.78755612  0.99578656     0.78990
H2815       H  0.29204716  0.91957364  0.55255516     0.42030
H2816       H  0.32699673  0.93197755  0.50450392     0.41000
H2817       H  0.44761558  0.90501589  0.94146438     0.40680
H2818       H  0.50659341  0.87316943  0.96014594     0.38610
H2819       H  0.53171566  0.78553563  0.49195831     0.41740
H2820       H  0.44240484  0.75504222  0.53934000     0.36530
H2821       H  0.36619672  0.78380100  0.60003427     0.42640
H2822       H  0.28727674  0.83405255  0.58998670     0.39060
H2823       H  0.54630818  0.86988597  0.98220358     0.43980
H2824       H  0.47992392  0.76985505  0.55673990     0.42700
H2825       H  0.25104708  0.85692073  0.59034643     0.42840
H2826       H  0.33861614  0.93635036  0.97344710     0.43190
O2827       O  0.93742357  0.93660086  0.54497788    -0.75680
O2828       O  0.95790583  0.92875169  0.99981382    -0.54580
C2829       C  0.95804220  0.94274124  0.02275862     0.78050
O2830       O  0.96958785  0.82978351  0.59690974    -0.60280
O2831       O  0.89333851  0.82171314  0.60430403    -0.53310
C2832       C  0.93520802  0.82521205  0.61267462     0.70070
O2833       O  0.04242954  0.85498156  0.52228240    -0.74840
O2834       O  0.01950903  0.87785610  0.98533168    -0.55400
C2835       C  0.04976292  0.86512514  0.99923297     0.76070
O2836       O  0.85554166  0.89355857  0.60696807    -0.59980
O2837       O  0.80959667  0.86239084  0.59185428    -0.53100
C2838       C  0.82705489  0.87580983  0.61158431     0.72660
Zr2839     Zr  0.88655342  0.90441482  0.56128182     2.54710
O2840       O  0.92030519  0.92965495  0.59955327    -0.80550
O2841       O  0.82352005  0.93626298  0.56021714    -0.93960
Zr2842     Zr  0.97804133  0.84539170  0.55053996     2.64680
O2843       O  0.03219312  0.86984053  0.57928823    -0.98920
O2844       O  0.02740359  0.80703020  0.55207996    -0.80980
O2845       O  0.95436020  0.88710013  0.53793011    -0.84340
O2846       O  0.91206252  0.86319865  0.57308711    -2.19050
O2847       O  0.75110798  0.85482006  0.53436912    -0.67730
O2848       O  0.77345280  0.82802511  0.56790690    -0.52290
C2849       C  0.74293318  0.83981421  0.55392561     0.71040
O2850       O  0.93465774  0.82587102  0.94466011    -0.60630
O2851       O  0.96191359  0.86653296  0.94665189    -0.52610
C2852       C  0.95551110  0.84489342  0.93409955     0.72850
O2853       O  0.84399050  0.78259048  0.50449204    -0.72030
O2854       O  0.82750640  0.78996928  0.55049583    -0.50710
C2855       C  0.82350101  0.77705530  0.52714706     0.74230
O2856       O  0.81355073  0.87585846  0.95613981    -0.67360
O2857       O  0.88744602  0.88649686  0.94582525    -0.54560
C2858       C  0.84599571  0.87910018  0.93890060     0.72610
Zr2859     Zr  0.80798216  0.87378267  0.00506520     2.77540
O2860       O  0.73630521  0.86678518  0.97914689    -0.98110
O2861       O  0.77177189  0.91627209  0.01020909    -0.78930
Zr2862     Zr  0.90100989  0.81401731  0.99079043     2.70070
O2863       O  0.89484252  0.78236708  0.95203456    -0.80180
O2864       O  0.96476926  0.78491377  0.50213446    -0.99260
Zr2865     Zr  0.93498554  0.88425754  0.98973730     2.21500
Zr2866     Zr  0.85359892  0.83317918  0.56182975     2.11130
O2867       O  0.83252933  0.83152833  0.51382343    -2.47950
O2868       O  0.87432294  0.85569071  0.98200097    -0.79970
O2869       O  0.82674897  0.87533160  0.55191324    -0.72160
O2870       O  0.95972784  0.84244814  0.50250020    -2.33120
O2871       O  0.86807342  0.90336883  0.01299315    -2.29330
O2872       O  0.92066074  0.81495292  0.53895398    -0.73920
H2873       H  0.91873531  0.86586356  0.59244189     0.78070
H2874       H  0.98522946  0.83544430  0.99139687     0.79160
H2875       H  0.80532133  0.82172736  0.50984178     0.81390
H2876       H  0.86048421  0.92007145  0.00646765     0.78990
H2877       H  0.00629003  0.79346473  0.55707041     0.42030
H2878       H  0.94948975  0.76915411  0.50714491     0.41000
H2879       H  0.86882570  0.77133854  0.95628962     0.40680
H2880       H  0.73145411  0.84820789  0.97944529     0.38610
H2881       H  0.74723724  0.91468569  0.52429629     0.41740
H2882       H  0.83916569  0.95250971  0.55767566     0.36530
H2883       H  0.94536992  0.91846161  0.60670870     0.42640
H2884       H  0.01269209  0.87833176  0.59413670     0.39060
H2885       H  0.71124239  0.87476370  0.99096243     0.43980
H2886       H  0.81180600  0.93782397  0.57952334     0.42700
H2887       H  0.05105161  0.85685020  0.58879573     0.42840
H2888       H  0.97988651  0.78028612  0.98408769     0.43190
O2889       O  0.27698064  0.62893916  0.70383364    -0.75680
O2890       O  0.25036574  0.60181560  0.73084536    -0.54580
C2891       C  0.24337483  0.62198725  0.71869894     0.78050
O2892       O  0.38623592  0.00708906  0.75634946    -0.60280
O2893       O  0.45036891  0.52304278  0.73738207    -0.53310
C2894       C  0.42896088  0.00528742  0.74840823     0.70070
O2895       O  0.23884636  0.54396273  0.74370560    -0.74840
O2896       O  0.21578113  0.58160160  0.76625300    -0.55400
C2897       C  0.20726450  0.56042685  0.75238382     0.76070
O2898       O  0.41221526  0.58654027  0.67824867    -0.59980
O2899       O  0.47221181  0.56871815  0.70228955    -0.53100
C2900       C  0.45300164  0.57644018  0.67966647     0.72660
Zr2901     Zr  0.34987815  0.60142672  0.70760036     2.54710
O2902       O  0.30874858  0.58079015  0.66886240    -0.80550
O2903       O  0.37251762  0.63649284  0.67999508    -0.93960
Zr2904     Zr  0.32356603  0.53925490  0.75049235     2.64680
O2905       O  0.31630678  0.01346595  0.70731509    -0.98920
O2906       O  0.28622251  0.00583274  0.77476499    -0.80980
O2907       O  0.29865413  0.57938830  0.73510083    -0.84340
O2908       O  0.37666149  0.56030185  0.72239532    -2.19050
O2909       O  0.50045721  0.62407230  0.77564318    -0.67730
O2910       O  0.51832215  0.58430978  0.75632079    -0.52290
C2911       C  0.53053836  0.60530394  0.76827449     0.71040
O2912       O  0.29943076  0.58206026  0.84330914    -0.60630
O2913       O  0.24880989  0.60650915  0.81916954    -0.52610
C2914       C  0.26097519  0.59453560  0.84050093     0.72850
O2915       O  0.42835343  0.54107630  0.81614012    -0.72030
O2916       O  0.48833163  0.55536449  0.79416728    -0.50710
C2917       C  0.46998013  0.54801565  0.81682489     0.74230
O2918       O  0.34912807  0.67011662  0.78077652    -0.67360
O2919       O  0.27680775  0.65296185  0.78044486    -0.54560
C2920       C  0.30373250  0.67218851  0.78112560     0.72610
Zr2921     Zr  0.41062091  0.63459843  0.77510762     2.77540
O2922       O  0.43349762  0.65813732  0.81751017    -0.98110
O2923       O  0.44178389  0.66718273  0.74693092    -0.78930
Zr2924     Zr  0.37251869  0.57539099  0.81897015     2.70070
O2925       O  0.41241338  0.60292455  0.85286866    -0.80180
O2926       O  0.37145395  0.55141385  0.86084804    -0.99260
Zr2927     Zr  0.28587434  0.60631856  0.77513323     2.21500
Zr2928     Zr  0.44381652  0.56709576  0.75111939     2.11130
O2929       O  0.42971099  0.59452771  0.79185781    -2.47950
O2930       O  0.35225965  0.61580948  0.80302102    -0.79970
O2931       O  0.42003896  0.60759896  0.73427888    -0.72160
O2932       O  0.30735728  0.56585521  0.79115477    -2.33120
O2933       O  0.34132956  0.62776276  0.74815823    -2.29330
O2934       O  0.38848020  0.54742175  0.77935112    -0.73920
H2935       H  0.38462915  0.54910502  0.70648821     0.78070
H2936       H  0.28251963  0.55833082  0.80095391     0.79160
H2937       H  0.45652625  0.59691360  0.80350050     0.81390
H2938       H  0.32981385  0.64353673  0.74106152     0.78990
H2939       H  0.26294280  0.01478720  0.78713181     0.42030
H2940       H  0.34430923  0.54034574  0.85871698     0.41000
H2941       H  0.38722595  0.61316475  0.86242774     0.40680
H2942       H  0.45480747  0.64621711  0.82692698     0.38610
H2943       H  0.44833044  0.65826118  0.72870681     0.41740
H2944       H  0.36318118  0.65210284  0.69126458     0.36530
H2945       H  0.29736791  0.56488801  0.67625593     0.42640
H2946       H  0.34748422  0.00544285  0.70401391     0.39060
H2947       H  0.45382581  0.67152041  0.81112162     0.43980
H2948       H  0.35072056  0.63606228  0.66409239     0.42700
H2949       H  0.29668533  0.99920385  0.71219456     0.42840
H2950       H  0.36303587  0.56397403  0.87617503     0.43190
O2951       O  0.98348485  0.57144902  0.70914865    -0.75680
O2952       O  0.01526592  0.59959916  0.73609079    -0.54580
C2953       C  0.01889197  0.57822662  0.72355602     0.78050
O2954       O  0.88461002  0.69980391  0.76077274    -0.60280
O2955       O  0.81423917  0.68095423  0.75977973    -0.53310
C2956       C  0.83989334  0.70019072  0.76016817     0.70070
O2957       O  0.02824622  0.66089640  0.75015031    -0.74840
O2958       O  0.05288972  0.62390844  0.76916670    -0.55400
C2959       C  0.06021929  0.64450461  0.75641478     0.76070
O2960       O  0.84829136  0.61780791  0.68976737    -0.59980
O2961       O  0.79556239  0.63933344  0.71849533    -0.53100
C2962       C  0.81064521  0.63097827  0.69430288     0.72660
Zr2963     Zr  0.91200115  0.60048076  0.71593358     2.54710
O2964       O  0.94323950  0.61537820  0.67312646    -0.80550
O2965       O  0.88096792  0.56338786  0.69070308    -0.93960
Zr2966     Zr  0.94496528  0.66573030  0.76050363     2.64680
O2967       O  0.95580990  0.68866948  0.71848407    -0.98920
O2968       O  0.98176732  0.69915464  0.78886750    -0.80980
O2969       O  0.96707549  0.62442168  0.74198475    -0.84340
O2970       O  0.88910732  0.64259266  0.73459512    -2.19050
O2971       O  0.76866903  0.58075462  0.78139694    -0.67730
O2972       O  0.75342833  0.62020165  0.76600586    -0.52290
C2973       C  0.73923663  0.59930734  0.77436355     0.71040
O2974       O  0.98205880  0.62915586  0.84971067    -0.60630
O2975       O  0.03182690  0.60566277  0.82140575    -0.52610
C2976       C  0.02210385  0.61885279  0.84373242     0.72850
O2977       O  0.84424752  0.66588908  0.83375855    -0.72030
O2978       O  0.78449093  0.64930709  0.81137069    -0.50710
C2979       C  0.80324190  0.65794717  0.83433668     0.74230
O2980       O  0.92210011  0.53741457  0.78755912    -0.67360
O2981       O  0.99378657  0.55539368  0.78876767    -0.54560
C2982       C  0.96734837  0.53617019  0.78871491     0.72610
Zr2983     Zr  0.85945124  0.57159528  0.78399165     2.77540
O2984       O  0.83642548  0.55303002  0.82685727    -0.98110
O2985       O  0.83046925  0.53475169  0.75735601    -0.78930
Zr2986     Zr  0.90426379  0.63348195  0.83009042     2.70070
O2987       O  0.87101633  0.60745034  0.86485449    -0.80180
O2988       O  0.91675222  0.65927081  0.87282060    -0.99260
Zr2989     Zr  0.98407242  0.60059457  0.78115749     2.21500
Zr2990     Zr  0.82674877  0.63770753  0.76628171     2.11130
O2991       O  0.84437632  0.61217259  0.80451716    -2.47950
O2992       O  0.92105081  0.59207966  0.81088585    -0.79970
O2993       O  0.84534023  0.59644480  0.74518734    -0.72160
O2994       O  0.96493073  0.64199128  0.79956574    -2.33120
O2995       O  0.92622894  0.57691283  0.75534091    -2.29330
O2996       O  0.88425548  0.65997559  0.79265285    -0.73920
H2997       H  0.87970985  0.65342986  0.71993057     0.78070
H2998       H  0.99085855  0.65048372  0.80824840     0.79160
H2999       H  0.81902843  0.60956565  0.81673985     0.81390
H3000       H  0.93762038  0.56051759  0.74796211     0.78990
H3001       H  0.96190176  0.70147955  0.80558307     0.42030
H3002       H  0.91293722  0.67721441  0.86765462     0.41000
H3003       H  0.89799008  0.59799410  0.87247683     0.40680
H3004       H  0.80205259  0.55357042  0.82637977     0.38610
H3005       H  0.84339238  0.53617867  0.73852997     0.41740
H3006       H  0.89879943  0.54864769  0.69771297     0.36530
H3007       H  0.93662622  0.63402434  0.67428101     0.42640
H3008       H  0.92440055  0.69089969  0.71043377     0.39060
H3009       H  0.84515333  0.53468811  0.82412679     0.43980
H3010       H  0.89210988  0.56466250  0.67144340     0.42700
H3011       H  0.96426655  0.70605048  0.72525319     0.42840
H3012       H  0.88969677  0.65638044  0.88472052     0.43190
O3013       O  0.21927125  0.85507817  0.68905295    -0.75680
O3014       O  0.26644753  0.83131139  0.71617436    -0.54580
C3015       C  0.25887478  0.84492057  0.69485524     0.78050
O3016       O  0.12836303  0.94235515  0.77509423    -0.60280
O3017       O  0.05576056  0.92605005  0.77177407    -0.53310
C3018       C  0.08326450  0.94467619  0.77469238     0.70070
O3019       O  0.27617270  0.89991037  0.77197519    -0.74840
O3020       O  0.26829344  0.86747248  0.74336658    -0.55400
C3021       C  0.29442026  0.87999510  0.75908177     0.76070
O3022       O  0.06673092  0.86874653  0.69077030    -0.59980
O3023       O  0.02009923  0.87494184  0.72856935    -0.53100
C3024       C  0.02721893  0.86907402  0.70264409     0.72660
Zr3025     Zr  0.14205667  0.85811528  0.70826489     2.54710
O3026       O  0.14491236  0.88742567  0.67092892    -0.80550
O3027       O  0.13444674  0.82253054  0.67415692    -0.93960
Zr3028     Zr  0.18915331  0.90720710  0.76866084     2.64680
O3029       O  0.21351092  0.93215761  0.73043907    -0.98920
O3030       O  0.21891471  0.93829969  0.80289002    -0.80980
O3031       O  0.20307708  0.87134956  0.73706768    -0.84340
O3032       O  0.12572459  0.89465722  0.73912929    -2.19050
O3033       O  0.01106600  0.82168963  0.76311252    -0.67730
O3034       O  0.99646509  0.86417812  0.77425697    -0.52290
C3035       C  0.98309950  0.84182748  0.76813435     0.71040
O3036       O  0.22665400  0.84441413  0.83801413    -0.60630
O3037       O  0.27560876  0.83248048  0.80225901    -0.52610
C3038       C  0.26642870  0.83744294  0.82818616     0.72850
O3039       O  0.08889672  0.88329955  0.84353951    -0.72030
O3040       O  0.02812006  0.88136650  0.81498820    -0.50710
C3041       C  0.04596140  0.87939424  0.83920198     0.74230
O3042       O  0.16162583  0.77466690  0.76790700    -0.67360
O3043       O  0.23540962  0.78902070  0.76266579    -0.54560
C3044       C  0.20682305  0.77125668  0.76685266     0.72610
Zr3045     Zr  0.09946004  0.80953376  0.76349456     2.77540
O3046       O  0.06696212  0.78119653  0.79628361    -0.98110
O3047       O  0.07519764  0.78062601  0.72544145    -0.78930
Zr3048     Zr  0.15046032  0.85630884  0.82319704     2.70070
O3049       O  0.12311368  0.81915279  0.84575852    -0.80180
O3050       O  0.17541122  0.87110929  0.86954917    -0.99260
Zr3051     Zr  0.22466170  0.83457952  0.76119313     2.21500
Zr3052     Zr  0.06873471  0.88088897  0.77028262     2.11130
O3053       O  0.08624210  0.84411636  0.79599580    -2.47950
O3054       O  0.16495976  0.82148197  0.79102635    -0.79970
O3055       O  0.08346559  0.84587262  0.73830319    -0.72160
O3056       O  0.20887849  0.87028150  0.79366190    -2.33120
O3057       O  0.16057279  0.82100009  0.73302935    -2.29330
O3058       O  0.13102551  0.89399317  0.79966158    -0.73920
H3059       H  0.11388326  0.90874637  0.72883025     0.78070
H3060       H  0.23538994  0.87546364  0.80449144     0.79160
H3061       H  0.06121686  0.83913880  0.80759943     0.81390
H3062       H  0.17000033  0.80675560  0.72061396     0.78990
H3063       H  0.22559081  0.92836561  0.81939570     0.42030
H3064       H  0.16111041  0.88835091  0.87304798     0.41000
H3065       H  0.15018067  0.81305442  0.85650924     0.40680
H3066       H  0.04776505  0.79248351  0.80905602     0.38610
H3067       H  0.08753669  0.78793612  0.70856317     0.41740
H3068       H  0.15739779  0.82561970  0.65956594     0.36530
H3069       H  0.16437613  0.90143473  0.67837543     0.42640
H3070       H  0.18423827  0.93924425  0.72278050     0.39060
H3071       H  0.04416200  0.77117876  0.78526700     0.43980
H3072       H  0.10394028  0.82551373  0.66522064     0.42700
H3073       H  0.22866452  0.94707439  0.73954084     0.42840
H3074       H  0.15979188  0.86023381  0.88258571     0.43190
O3075       O  0.55705108  0.87559367  0.70974653    -0.75680
O3076       O  0.50400120  0.86545291  0.74022354    -0.54580
C3077       C  0.51653236  0.86867021  0.71513422     0.78050
O3078       O  0.64985379  0.76831236  0.77244468    -0.60280
O3079       O  0.72011760  0.78760545  0.77344705    -0.53310
C3080       C  0.69469984  0.76824393  0.77181565     0.70070
O3081       O  0.50106974  0.81350381  0.76965457    -0.74840
O3082       O  0.49275005  0.84523621  0.80115859    -0.55400
C3083       C  0.47532032  0.83137157  0.78238119     0.76070
O3084       O  0.69870653  0.85227545  0.70196285    -0.59980
O3085       O  0.74939446  0.83216139  0.73019709    -0.53100
C3086       C  0.73927478  0.84375948  0.70790768     0.72660
Zr3087     Zr  0.62254234  0.84936713  0.72078648     2.54710
O3088       O  0.60128772  0.81025689  0.69505316    -0.80550
O3089       O  0.62334255  0.85924534  0.67193181    -0.93960
Zr3090     Zr  0.58757843  0.80166013  0.77737836     2.64680
O3091       O  0.55920981  0.76780704  0.74588749    -0.98920
O3092       O  0.55932798  0.77632698  0.81430156    -0.80980
O3093       O  0.56408731  0.83605910  0.75061446    -0.84340
O3094       O  0.64710791  0.81450643  0.74665925    -2.19050
O3095       O  0.76214069  0.89027051  0.77611638    -0.67730
O3096       O  0.77931922  0.84774095  0.76801600    -0.52290
C3097       C  0.79148827  0.87049754  0.77231346     0.71040
O3098       O  0.56776569  0.87386028  0.85637626    -0.60630
O3099       O  0.50740051  0.86987392  0.82792545    -0.52610
C3100       C  0.52590035  0.86735673  0.85198835     0.72850
O3101       O  0.71525157  0.84625071  0.85367321    -0.72030
O3102       O  0.76065081  0.83436069  0.81639998    -0.50710
C3103       C  0.75486027  0.84179326  0.84225500     0.74230
O3104       O  0.60727734  0.93227721  0.77748155    -0.67360
O3105       O  0.53716725  0.91457063  0.78640987    -0.54560
C3106       C  0.56261250  0.93315991  0.78111694     0.72610
Zr3107     Zr  0.67237256  0.90006631  0.77811109     2.77540
O3108       O  0.69877304  0.93129655  0.81332596    -0.98110
O3109       O  0.69607124  0.92792268  0.74227516    -0.78930
Zr3110     Zr  0.63716573  0.85207588  0.83710341     2.70070
O3111       O  0.65751073  0.87968586  0.87709709    -0.80180
O3112       O  0.62226616  0.81828366  0.86834134    -0.99260
Zr3113     Zr  0.55050458  0.87045185  0.78395245     2.21500
Zr3114     Zr  0.70801866  0.83156649  0.77510704     2.11130
O3115       O  0.69207395  0.86694467  0.80606632    -2.47950
O3116       O  0.61450645  0.88699292  0.81015858    -0.79970
O3117       O  0.68559170  0.86500186  0.74708098    -0.72160
O3118       O  0.57587541  0.83550406  0.81055550    -2.33120
O3119       O  0.60683442  0.88511048  0.75218885    -2.29330
O3120       O  0.65246776  0.81587210  0.80589027    -0.73920
H3121       H  0.65847589  0.80066627  0.73428429     0.78070
H3122       H  0.55511466  0.82871349  0.82376541     0.79160
H3123       H  0.71792154  0.87426101  0.81573287     0.81390
H3124       H  0.59509340  0.89940772  0.74226957     0.78990
H3125       H  0.52580514  0.78094758  0.81573097     0.42030
H3126       H  0.62731765  0.80220232  0.85695964     0.41000
H3127       H  0.66921008  0.89520271  0.86900320     0.40680
H3128       H  0.72668527  0.93845899  0.80511751     0.38610
H3129       H  0.72690811  0.92101117  0.73611510     0.41740
H3130       H  0.62207850  0.87811194  0.67188110     0.36530
H3131       H  0.56820021  0.81307762  0.69019640     0.42640
H3132       H  0.58145290  0.76676925  0.73023074     0.39060
H3133       H  0.67517258  0.94539999  0.81343585     0.43980
H3134       H  0.59305155  0.85389727  0.66422932     0.42700
H3135       H  0.56508118  0.75187997  0.75560459     0.42840
H3136       H  0.64863601  0.81867452  0.88153713     0.43190
C3137       C  0.93130809  0.84265386  0.76607461    -0.06510
C3138       C  0.91265530  0.85964431  0.74669747    -0.17640
C3139       C  0.87080807  0.87396944  0.75124012     0.10690
C3140       C  0.84340862  0.87038664  0.77467999    -0.06430
C3141       C  0.86233513  0.85359786  0.79418805    -0.17670
C3142       C  0.90472074  0.83976988  0.79009498     0.10720
S3143       S  0.85629272  0.89845190  0.72783105    -0.32630
S3144       S  0.92445950  0.81967564  0.81716037    -0.32640
H3145       H  0.95442303  0.80410018  0.80017209     0.28730
H3146       H  0.82378907  0.91167027  0.74534679     0.28720
H3147       H  0.93346069  0.86404897  0.72918595     0.19320
H3148       H  0.84215133  0.84964321  0.81210884     0.19320
C3149       C  0.42939611  0.84219920  0.77267703    -0.06510
C3150       C  0.42437434  0.86935315  0.77335731    -0.17640
C3151       C  0.38218470  0.88231640  0.76821853     0.10690
C3152       C  0.34207198  0.86828936  0.76330884    -0.06430
C3153       C  0.34739695  0.84117631  0.76115770    -0.17670
C3154       C  0.38977591  0.82811260  0.76630574     0.10720
S3155       S  0.38209583  0.91659429  0.76793931    -0.32630
S3156       S  0.38983736  0.79378680  0.76629104    -0.32640
H3157       H  0.42408634  0.79132226  0.78683795     0.28730
H3158       H  0.34825908  0.92047366  0.78874908     0.28720
H3159       H  0.45372396  0.88101457  0.77881549     0.19320
H3160       H  0.31759571  0.82967912  0.75678728     0.19320
C3161       C  0.99287615  0.51112951  0.78657562    -0.06510
C3162       C  0.00258120  0.50060654  0.75975510    -0.17640
C3163       C  0.03534170  0.98046205  0.75514992     0.10690
C3164       C  0.05937371  0.97016288  0.77777290    -0.06430
C3165       C  0.05014255  0.98084986  0.80460227    -0.17670
C3166       C  0.01763380  0.50124986  0.80917383     0.10720
S3167       S  0.04500934  0.96857541  0.71981540    -0.32630
S3168       S  0.00895049  0.51374389  0.84433567    -0.32640
H3169       H  0.96396933  0.52404642  0.84033928     0.28730
H3170       H  0.09097287  0.95974162  0.72386647     0.28720
H3171       H  0.98571429  0.50881852  0.74205547     0.19320
H3172       H  0.06710231  0.97263016  0.82225009     0.19320
C3173       C  0.72263903  0.74510807  0.76838186    -0.06510
C3174       C  0.74940573  0.73989422  0.79179525    -0.17640
C3175       C  0.79482595  0.73041418  0.78902540     0.10690
C3176       C  0.81268265  0.72363625  0.76242151    -0.06430
C3177       C  0.78593152  0.72867768  0.73895380    -0.17670
C3178       C  0.74101824  0.73908824  0.74169286     0.10720
S3179       S  0.82771151  0.72572651  0.82028932    -0.32630
S3180       S  0.70970076  0.74600983  0.71044658    -0.32640
H3181       H  0.66538990  0.74631425  0.72261239     0.28730
H3182       H  0.87153964  0.72587712  0.80755970     0.28720
H3183       H  0.73670861  0.74597313  0.81231356     0.19320
H3184       H  0.79862659  0.72245451  0.71848930     0.19320
C3185       C  0.45833812  0.98348930  0.75553951    -0.06510
C3186       C  0.46089868  0.97787046  0.78356770    -0.17640
C3187       C  0.49880184  0.96391362  0.79355277     0.10690
C3188       C  0.53522060  0.95584728  0.77531277    -0.06430
C3189       C  0.53227949  0.96125956  0.74728101    -0.17670
C3190       C  0.49335482  0.97403639  0.73708614     0.10720
S3191       S  0.49772628  0.95480006  0.82912072    -0.32630
S3192       S  0.48841584  0.97618918  0.70007941    -0.32640
H3193       H  0.43981950  0.97982393  0.69966955     0.28730
H3194       H  0.54625332  0.95240571  0.83207956     0.28720
H3195       H  0.43409750  0.98510188  0.79786848     0.19320
H3196       H  0.55801348  0.95313406  0.73272352     0.19320
C3197       C  0.27909822  0.69793186  0.77918191    -0.06510
C3198       C  0.24029849  0.69956508  0.76125713    -0.17640
C3199       C  0.21566633  0.72267907  0.75713903     0.10690
C3200       C  0.22916936  0.74544260  0.77141418    -0.06430
C3201       C  0.26790174  0.74393741  0.78944686    -0.17670
C3202       C  0.29233408  0.72066804  0.79372813     0.10720
S3203       S  0.16921704  0.72196408  0.73203348    -0.32630
S3204       S  0.33882032  0.72118212  0.81875577    -0.32640
H3205       H  0.33124402  0.69670565  0.82805246     0.28730
H3206       H  0.17809257  0.74581544  0.72152190     0.28720
H3207       H  0.22995649  0.68272079  0.74931642     0.19320
H3208       H  0.27899583  0.76112372  0.80067268     0.19320
C3209       C  0.58317340  0.60560628  0.77372983    -0.06510
C3210       C  0.60681755  0.58257097  0.78103161    -0.17640
C3211       C  0.65628670  0.57954663  0.78238310     0.10690
C3212       C  0.68513667  0.59976018  0.77580145    -0.06430
C3213       C  0.66076545  0.62306782  0.76958558    -0.17670
C3214       C  0.61168578  0.62601389  0.76814976     0.10720
S3215       S  0.68008041  0.54922926  0.79196590    -0.32630
S3216       S  0.58787693  0.65597738  0.75721213    -0.32640
H3217       H  0.55408352  0.64509060  0.73956232     0.28730
H3218       H  0.71121159  0.55992657  0.81144111     0.28720
H3219       H  0.58630415  0.56632314  0.78548399     0.19320
H3220       H  0.68001831  0.63966065  0.76481474     0.19320
C3221       C  0.15749020  0.55579277  0.74553072    -0.06510
C3222       C  0.14242471  0.54978256  0.71801688    -0.17640
C3223       C  0.09479424  0.55252408  0.71038072     0.10690
C3224       C  0.06231765  0.56299733  0.73010937    -0.06430
C3225       C  0.07801869  0.56660437  0.75770518    -0.17670
C3226       C  0.12361993  0.56200279  0.76571561     0.10720
S3227       S  0.07812043  0.54408523  0.67522979    -0.32630
S3228       S  0.13725783  0.56645800  0.80209941    -0.32640
H3229       H  0.17282343  0.54750740  0.80117323     0.28730
H3230       H  0.03242632  0.53803515  0.68185663     0.28720
H3231       H  0.16790001  0.54427844  0.70217740     0.19320
H3232       H  0.05601088  0.57591244  0.77322263     0.19320
C3233       C  0.97383156  0.84383084  0.90534664    -0.06510
C3234       C  0.94879092  0.85786765  0.88597079    -0.17640
C3235       C  0.97048431  0.87015173  0.86456140     0.10690
C3236       C  0.01917397  0.86797682  0.86167693    -0.06430
C3237       C  0.04394002  0.85247825  0.87995290    -0.17670
C3238       C  0.02191673  0.84032987  0.90131940     0.10720
S3239       S  0.93517830  0.89174772  0.84508626    -0.32630
S3240       S  0.05583371  0.82157949  0.92457859    -0.32640
H3241       H  0.09974754  0.82631582  0.91359054     0.28730
H3242       H  0.94462918  0.87907738  0.81940751     0.28720
H3243       H  0.91248279  0.86132113  0.88900966     0.19320
H3244       H  0.08107166  0.85024811  0.87792895     0.19320
C3245       C  0.99077963  0.85659195  0.68620546    -0.06510
C3246       C  0.99751883  0.83016764  0.68024084    -0.17640
C3247       C  0.97453183  0.81769144  0.65811429     0.10690
C3248       C  0.94290631  0.83167604  0.64231095    -0.06430
C3249       C  0.93189711  0.85724292  0.65085984    -0.17670
C3250       C  0.95623811  0.87005964  0.67211021     0.10720
S3251       S  0.99027127  0.78483131  0.64916267    -0.32630
S3252       S  0.94675370  0.90408847  0.67717940    -0.32640
H3253       H  0.96252070  0.90609058  0.70474762     0.28730
H3254       H  0.95040716  0.77972140  0.63315914     0.28720
H3255       H  0.02401028  0.81968145  0.69131092     0.19320
H3256       H  0.90866544  0.86845285  0.63864547     0.19320
C3257       C  0.79442692  0.84886370  0.86052587    -0.06510
C3258       C  0.80410053  0.83284039  0.88201196    -0.17640
C3259       C  0.82266771  0.84235793  0.90717881     0.10690
C3260       C  0.83505512  0.86836352  0.91066960    -0.06430
C3261       C  0.82941260  0.88398641  0.88834486    -0.17670
C3262       C  0.80856174  0.87466959  0.86351992     0.10720
S3263       S  0.82406819  0.82172039  0.93592912    -0.32630
S3264       S  0.79504809  0.89707796  0.83751953    -0.32640
H3265       H  0.82234923  0.91699551  0.84842148     0.28730
H3266       H  0.81291267  0.79898838  0.92099454     0.28720
H3267       H  0.79160759  0.81356971  0.88028813     0.19320
H3268       H  0.83790201  0.90389765  0.89118459     0.19320
C3269       C  0.77528189  0.85060033  0.68844340    -0.06510
C3270       C  0.78043821  0.87687680  0.68514054    -0.17640
C3271       C  0.80131266  0.88594504  0.66153808     0.10690
C3272       C  0.81469854  0.86843719  0.63979420    -0.06430
C3273       C  0.81034018  0.84210270  0.64351308    -0.17670
C3274       C  0.79194870  0.83303558  0.66768784     0.10720
S3275       S  0.80368311  0.91989461  0.65869839    -0.32630
S3276       S  0.78444631  0.79916093  0.66900987    -0.32640
H3277       H  0.78863264  0.79852026  0.69797296     0.28730
H3278       H  0.85108958  0.91915360  0.65180944     0.28720
H3279       H  0.76555569  0.89056388  0.70046861     0.19320
H3280       H  0.81870563  0.82830538  0.62675094     0.19320
C3281       C  0.45751907  0.82040993  0.91115374    -0.06510
C3282       C  0.50096670  0.83073752  0.91683820    -0.17640
C3283       C  0.52217769  0.84734508  0.89927248     0.10690
C3284       C  0.50097917  0.85301880  0.87360727    -0.06430
C3285       C  0.45965389  0.84019922  0.86643937    -0.17670
C3286       C  0.43915002  0.82328173  0.88438309     0.10720
S3287       S  0.57563516  0.86132809  0.91135972    -0.32630
S3288       S  0.39758137  0.80157740  0.86973267    -0.32640
H3289       H  0.40145211  0.78366856  0.89032607     0.28730
H3290       H  0.58961585  0.84148847  0.92832347     0.28720
H3291       H  0.51829731  0.82616403  0.93576264     0.19320
H3292       H  0.44451456  0.84205710  0.84608113     0.19320
C3293       C  0.47360484  0.84452564  0.63437155    -0.06510
C3294       C  0.46341919  0.82913121  0.65634142    -0.17640
C3295       C  0.47129714  0.83750000  0.68415641     0.10690
C3296       C  0.48752474  0.86235144  0.69040637    -0.06430
C3297       C  0.49257976  0.87855480  0.66865163    -0.17670
C3298       C  0.48874085  0.86980022  0.64097882     0.10720
S3299       S  0.46519018  0.81521730  0.71077004    -0.32630
S3300       S  0.50781815  0.89127881  0.61533502    -0.32640
H3301       H  0.50427912  0.91404105  0.63203207     0.28730
H3302       H  0.44339764  0.79608177  0.69441821     0.28720
H3303       H  0.45146501  0.81004664  0.65158662     0.19320
H3304       H  0.50586239  0.89738987  0.67336182     0.19320
C3305       C  0.32555800  0.85109210  0.90508501    -0.06510
C3306       C  0.33931249  0.86584012  0.88356800    -0.17640
C3307       C  0.32717578  0.85916386  0.85625004     0.10690
C3308       C  0.30198335  0.83700101  0.84973817    -0.06430
C3309       C  0.29242865  0.82086919  0.87088033    -0.17670
C3310       C  0.30313272  0.82755689  0.89845068     0.10720
S3311       S  0.34070104  0.88094257  0.83078730    -0.32630
S3312       S  0.28608300  0.80550201  0.92401113    -0.32640
H3313       H  0.27736840  0.78450140  0.90561354     0.28730
H3314       H  0.36688768  0.86119211  0.81712257     0.28720
H3315       H  0.35728982  0.88341161  0.88813339     0.19320
H3316       H  0.27185117  0.80426331  0.86603348     0.19320
C3317       C  0.35387031  0.87752623  0.63935833    -0.06510
C3318       C  0.35779814  0.85122304  0.64420063    -0.17640
C3319       C  0.33087550  0.83992728  0.66410899     0.10690
C3320       C  0.29806242  0.85510709  0.67931218    -0.06430
C3321       C  0.29778317  0.88182226  0.67676868    -0.17670
C3322       C  0.32513972  0.89307156  0.65706196     0.10720
S3323       S  0.33525642  0.80584190  0.66634960    -0.32630
S3324       S  0.31904829  0.92700886  0.65373760    -0.32640
H3325       H  0.36152878  0.92945319  0.63993563     0.28730
H3326       H  0.33498652  0.80679594  0.69551255     0.28720
H3327       H  0.37838061  0.83865811  0.63062790     0.19320
H3328       H  0.27373381  0.89395703  0.68910627     0.19320
C3329       C  0.60191023  0.84650222  0.54776103    -0.06510
C3330       C  0.62120822  0.85372117  0.57360096    -0.17640
C3331       C  0.66849573  0.84875211  0.57849255     0.10690
C3332       C  0.69474665  0.83499995  0.55787159    -0.06430
C3333       C  0.67390144  0.82516574  0.53383620    -0.17670
C3334       C  0.62933669  0.83277126  0.52754300     0.10720
S3335       S  0.69580203  0.86106022  0.60987949    -0.32630
S3336       S  0.61348052  0.82913092  0.99163807    -0.32640
H3337       H  0.62595530  0.85421562  0.98675455     0.28730
H3338       H  0.65678998  0.87518657  0.62026763     0.28720
H3339       H  0.59982166  0.86366337  0.58936932     0.19320
H3340       H  0.69503602  0.81549064  0.01763557     0.19320
C3341       C  0.19093875  0.84911269  0.98810506    -0.06510
C3342       C  0.16114212  0.82879361  0.98778620    -0.17640
C3343       C  0.11338309  0.83350085  0.98792689     0.10690
C3344       C  0.09581102  0.85906952  0.98785833    -0.06430
C3345       C  0.12572581  0.87889422  0.48372962    -0.17670
C3346       C  0.17368276  0.87410149  0.48395181     0.10720
S3347       S  0.07562958  0.80694764  0.99159203    -0.32630
S3348       S  0.21268346  0.90014143  0.48111859    -0.32640
H3349       H  0.17847366  0.91895282  0.47582665     0.28730
H3350       H  0.10978117  0.78734853  0.98781035     0.28720
H3351       H  0.17518229  0.80969191  0.99043054     0.19320
H3352       H  0.11187570  0.89827858  0.48333583     0.19320
C3353       C  0.49051190  0.55416860  0.84528877    -0.06510
C3354       C  0.51100570  0.57788874  0.85000359    -0.17640
C3355       C  0.51868857  0.58844193  0.87696899     0.10690
C3356       C  0.51120821  0.57413611  0.90075965    -0.06430
C3357       C  0.49150668  0.55016196  0.89630013    -0.17670
C3358       C  0.48020155  0.54039559  0.86924515     0.10720
S3359       S  0.53473443  0.62139716  0.87953278    -0.32630
S3360       S  0.45347497  0.50985279  0.86703277    -0.32640
H3361       H  0.46703544  0.50415949  0.83958833     0.28730
H3362       H  0.51524657  0.62679893  0.90598946     0.28720
H3363       H  0.51779968  0.58941912  0.83260521     0.19320
H3364       H  0.48605247  0.53859372  0.91387912     0.19320
C3365       C  0.49692833  0.57617691  0.59455495    -0.06510
C3366       C  0.50478758  0.55399538  0.60936344    -0.17640
C3367       C  0.49424622  0.55346408  0.63786841     0.10690
C3368       C  0.47741991  0.57589610  0.65244919    -0.06430
C3369       C  0.47141969  0.59815968  0.63761232    -0.17670
C3370       C  0.47914494  0.59826930  0.60909028     0.10720
S3371       S  0.50092340  0.52351985  0.65391461    -0.32630
S3372       S  0.46701623  0.62766868  0.59265887    -0.32640
H3373       H  0.44599517  0.61605756  0.56912170     0.28730
H3374       H  0.51989857  0.03397916  0.67865886     0.28720
H3375       H  0.52002655  0.53708021  0.59871355     0.19320
H3376       H  0.45774179  0.61552521  0.64817564     0.19320
C3377       C  0.77077625  0.63956467  0.91949276    -0.06510
C3378       C  0.76507922  0.62216823  0.89640553    -0.17640
C3379       C  0.76614877  0.62958362  0.86889658     0.10690
C3380       C  0.78404760  0.65338035  0.86283575    -0.06430
C3381       C  0.79438012  0.67029300  0.88584606    -0.17670
C3382       C  0.78576299  0.66417668  0.91374645     0.10720
S3383       S  0.73907465  0.60934570  0.84262376    -0.32630
S3384       S  0.79247710  0.68875339  0.94074541    -0.32640
H3385       H  0.80738319  0.67204248  0.96097536     0.28730
H3386       H  0.73305229  0.58800007  0.85852037     0.28720
H3387       H  0.75284871  0.60334469  0.90012674     0.19320
H3388       H  0.80865445  0.68863634  0.88203108     0.19320
C3389       C  0.74792120  0.63003182  0.61411184    -0.06510
C3390       C  0.77560676  0.65063438  0.62247387    -0.17640
C3391       C  0.79335671  0.65303310  0.64976959     0.10690
C3392       C  0.78267171  0.63475103  0.66920372    -0.06430
C3393       C  0.75499058  0.61446581  0.66089563    -0.17670
C3394       C  0.73817786  0.61157814  0.63381896     0.10720
S3395       S  0.83004531  0.67948012  0.65856796    -0.32630
S3396       S  0.70706027  0.58282772  0.62449979    -0.32640
H3397       H  0.70082236  0.57464622  0.65149416     0.28730
H3398       H  0.82255417  0.67985752  0.68737044     0.28720
H3399       H  0.78258790  0.66512654  0.60799419     0.19320
H3400       H  0.74921129  0.59975841  0.67533216     0.19320
C3401       C  0.53179657  0.00401012  0.52260343    -0.06510
C3402       C  0.48699255  0.00052663  0.51164009    -0.17640
C3403       C  0.46179086  0.97885755  0.51636887     0.10690
C3404       C  0.48221476  0.95876788  0.53115209    -0.06430
C3405       C  0.52604467  0.96249915  0.54330316    -0.17670
C3406       C  0.55033067  0.98504631  0.53987490     0.10720
S3407       S  0.40293557  0.97855329  0.00345954    -0.32630
S3408       S  0.60351805  0.98866327  0.55909864    -0.32640
H3409       H  0.59303530  0.01414608  0.56802414     0.28730
H3410       H  0.38552055  0.96518690  0.02552508     0.28720
H3411       H  0.47082794  0.51495903  0.99925258     0.19320
H3412       H  0.54184858  0.94762488  0.55524860     0.19320
C3413       C  0.72253548  0.71692031  0.52212566    -0.06510
C3414       C  0.75320913  0.71925411  0.54486408    -0.17640
C3415       C  0.78676992  0.73815198  0.54686328     0.10690
C3416       C  0.79037308  0.75560377  0.52568010    -0.06430
C3417       C  0.75906048  0.75365687  0.50320353    -0.17670
C3418       C  0.72515471  0.73483494  0.50138118     0.10720
S3419       S  0.82597693  0.73775275  0.57603957    -0.32630
S3420       S  0.68835345  0.73351866  0.97120750    -0.32640
H3421       H  0.64725070  0.73165690  0.98651435     0.28730
H3422       H  0.86509870  0.74491444  0.56123880     0.28720
H3423       H  0.75250174  0.70534603  0.56067625     0.19320
H3424       H  0.76065090  0.76712458  0.98699299     0.19320
C3425       C  0.05886027  0.62420757  0.86369347    -0.06510
C3426       C  0.06760914  0.65006588  0.87020040    -0.17640
C3427       C  0.08458941  0.65795296  0.89630588     0.10690
C3428       C  0.09398319  0.63929675  0.91555874    -0.06430
C3429       C  0.09218000  0.61329489  0.90712638    -0.17670
C3430       C  0.07469897  0.60548565  0.88140425     0.10720
S3431       S  0.08825405  0.69178477  0.90439164    -0.32630
S3432       S  0.06531904  0.57187355  0.87510622    -0.32640
H3433       H  0.06909416  0.57160493  0.84619172     0.28730
H3434       H  0.08146388  0.69144990  0.93313859     0.28720
H3435       H  0.05599595  0.66439958  0.85614657     0.19320
H3436       H  0.09957634  0.59887165  0.92191828     0.19320
C3437       C  0.06697184  0.63255684  0.62823069    -0.06510
C3438       C  0.09253751  0.63059607  0.60573090    -0.17640
C3439       C  0.12603611  0.61330487  0.59623751     0.10690
C3440       C  0.14133783  0.59728599  0.61658791    -0.06430
C3441       C  0.11926099  0.59861382  0.64324407    -0.17670
C3442       C  0.07969476  0.61530944  0.64824538     0.10720
S3443       S  0.12511007  0.62017700  0.55088836    -0.32630
S3444       S  0.04925620  0.61569054  0.68015030    -0.32640
H3445       H  0.02566407  0.63917856  0.67662917     0.28730
H3446       H  0.12837426  0.60531972  0.53005641     0.28720
H3447       H  0.08258787  0.64095277  0.58899203     0.19320
H3448       H  0.12946373  0.58515458  0.65847873     0.19320
C3449       C  0.23106548  0.59667190  0.86454339    -0.06510
C3450       C  0.22357980  0.62120204  0.87628425    -0.17640
C3451       C  0.21017654  0.62506479  0.90383763     0.10690
C3452       C  0.20183384  0.60346021  0.91963921    -0.06430
C3453       C  0.20525392  0.57890743  0.90665999    -0.17670
C3454       C  0.22023207  0.57527229  0.87935962     0.10720
S3455       S  0.20737772  0.65780400  0.91774238    -0.32630
S3456       S  0.22676111  0.54289611  0.86511261    -0.32640
H3457       H  0.22760506  0.54890465  0.83717030     0.28730
H3458       H  0.20367714  0.66953528  0.89224286     0.28720
H3459       H  0.23284403  0.63738399  0.86461013     0.19320
H3460       H  0.19796888  0.56227552  0.91810144     0.19320
C3461       C  0.20029955  0.63705314  0.72752108    -0.06510
C3462       C  0.18874722  0.63609135  0.75587246    -0.17640
C3463       C  0.14463061  0.64226959  0.76622017     0.10690
C3464       C  0.10899144  0.64839353  0.74786227    -0.06430
C3465       C  0.12072137  0.65284321  0.72011229    -0.17670
C3466       C  0.16607938  0.64702978  0.70967374     0.10720
S3467       S  0.13349659  0.64141298  0.80305569    -0.32630
S3468       S  0.17686261  0.65095323  0.67346967    -0.32640
H3469       H  0.20633668  0.62928448  0.66950517     0.28730
H3470       H  0.17114241  0.62516431  0.80907551     0.28720
H3471       H  0.21336897  0.62853475  0.77015088     0.19960
H3472       H  0.09380728  0.65889265  0.70601799     0.19320
C3473       C  0.98418836  0.96736116  0.52528826    -0.06510
C3474       C  0.98122675  0.48208129  0.55071263    -0.17640
C3475       C  0.00774233  0.50377027  0.55634634     0.10690
C3476       C  0.03806823  0.51218088  0.53591627    -0.06430
C3477       C  0.04080162  0.49769934  0.01037169    -0.17670
C3478       C  0.01443929  0.97585615  0.00479191     0.10720
S3479       S  0.00210429  0.51897947  0.59059817    -0.32630
S3480       S  0.02137930  0.96004704  0.97098050    -0.32640
H3481       H  0.97355733  0.96156946  0.96501106     0.28730
H3482       H  0.05030656  0.52103694  0.59452352     0.28720
H3483       H  0.95868702  0.47638099  0.56705890     0.19320
H3484       H  0.06298635  0.00373584  0.99401337     0.19320
C3485       C  0.92250738  0.57337615  0.53833670    -0.06510
C3486       C  0.89252490  0.57513609  0.56112604    -0.17640
C3487       C  0.84495901  0.57123141  0.55734560     0.10690
C3488       C  0.82738749  0.56589395  0.53042429    -0.06430
C3489       C  0.85833762  0.56035031  0.50855381    -0.17670
C3490       C  0.90594782  0.56336737  0.51244760     0.10720
S3491       S  0.80610259  0.57556123  0.58636480    -0.32630
S3492       S  0.94358946  0.55578735  0.98320634    -0.32640
H3493       H  0.98198853  0.54890955  0.99950462     0.28730
H3494       H  0.84003901  0.58041514  0.60682609     0.28720
H3495       H  0.90543030  0.58197545  0.58117333     0.19320
H3496       H  0.84513889  0.55571807  0.98790184     0.19320
C3497       C  0.32431063  0.65316670  0.01039487    -0.06510
C3498       C  0.35269429  0.66685442  0.52916817    -0.17640
C3499       C  0.40089850  0.66751276  0.52506901     0.10690
C3500       C  0.42123641  0.65379151  0.50187506    -0.06430
C3501       C  0.39202957  0.64224750  0.98191265    -0.17670
C3502       C  0.34410018  0.64196621  0.98580767     0.10720
S3503       S  0.43422142  0.68472381  0.55109985    -0.32630
S3504       S  0.31069066  0.62438811  0.96027054    -0.32640
H3505       H  0.28115945  0.64557415  0.95606794     0.28730
H3506       H  0.47007254  0.66623502  0.55233694     0.28720
H3507       H  0.33757386  0.67591304  0.54787348     0.19320
H3508       H  0.40707741  0.63176446  0.96398671     0.19320
C3509       C  0.26472193  0.76212232  0.01949856    -0.06510
C3510       C  0.24051104  0.75474160  0.99511299    -0.17640
C3511       C  0.19987656  0.74098089  0.99598518     0.10690
C3512       C  0.18345943  0.73331289  0.02169116    -0.06430
C3513       C  0.20432591  0.74286064  0.54615305    -0.17670
C3514       C  0.24435782  0.75733860  0.54552825     0.10720
S3515       S  0.17125617  0.73300256  0.96349479    -0.32630
S3516       S  0.26845391  0.76856976  0.57847312    -0.32640
H3517       H  0.23070139  0.76286668  0.59527314     0.28730
H3518       H  0.12737067  0.72961125  0.97527668     0.28720
H3519       H  0.25337901  0.75945297  0.97499731     0.19320
H3520       H  0.19160399  0.73709910  0.56589937     0.19320
loop_ 
_geom_bond_atom_site_label_1 
_geom_bond_atom_site_label_2 
_geom_bond_distance 
_geom_bond_site_symmetry_2 
_ccdc_geom_bond_type 
O1          Zr13   2.463       .  S
O1          C883   1.293       .  A
O2          Zr39   2.388       .  S
O2            C3   1.281       .  A
C3          O881   1.293       .  A
C3          C872   1.474       .  S
O4          Zr16   2.540       .  S
O4            C6   1.290       .  A
O5          Zr40   2.539       .  S
O5            C6   1.275       .  A
C6          C800   1.370       .  S
O7          Zr16   2.454       .  S
O7          C889   1.289       .  A
O8          Zr39   2.420       .  S
O8            C9   1.283       .  A
C9          O887   1.289       .  A
C9          C857   1.477       .  S
O10         Zr13   2.719       .  S
O10          C12   1.337       .  A
O11         Zr40   2.549       .  S
O11          C12   1.285       .  A
C12         C797   1.484       .  S
Zr13         O14   2.435       .  S
Zr13         O15   2.443       .  S
Zr13         O19   2.569       .  S
Zr13         O20   2.340       .  S
Zr13         O43   2.456       .  S
Zr13        O925   2.395       .  S
O14          H57   0.990       .  S
O15          H56   0.990       .  S
O15          H60   0.990       .  S
Zr16         O17   2.440       .  S
Zr16         O18   2.436       .  S
Zr16         O20   2.478       .  S
Zr16         O19   2.564       .  S
Zr16         O46   2.615       .  S
Zr16        O924   2.408       .  S
O17          H58   0.990       .  S
O17          H61   0.990       .  S
O18          H51   0.990       .  S
O19        Zr919   2.423       .  S
O20         Zr40   3.587       .  S
O20          H47   0.974       .  S
O21         Zr33   2.424   1_655  S
O21         C903   1.284       .  A
O22         Zr40   2.447   1_655  S
O22          C23   1.289       .  A
C23         O901   1.284       .  A
C23         C845   1.474       .  S
O24         Zr36   2.451       .  S
O24          C26   1.291       .  A
O25         Zr39   2.370       .  S
O25          C26   1.274       .  A
C26         C812   1.472       .  S
O27         Zr36   2.449       .  S
O27         C909   1.290       .  A
O28         Zr40   2.478       .  S
O28          C29   1.296       .  A
C29         O907   1.290       .  A
C29         C836   1.509       .  S
O30         Zr33   2.397       .  S
O30          C32   1.279       .  A
O31         Zr39   2.429       .  S
O31          C32   1.283       .  A
C32         C788   1.457       .  S
Zr33         O34   2.440   1_455  S
Zr33         O35   2.436   1_455  S
Zr33         O41   2.379       .  S
Zr33         O42   2.384       .  S
Zr33         O45   2.371       .  S
Zr33        O923   2.354       .  S
O34          H54   0.990       .  S
O34          H59   0.990       .  S
O35          H55   0.990       .  S
Zr36         O37   2.434       .  S
Zr36         O38   2.433       .  S
Zr36         O42   2.414       .  S
Zr36         O41   2.461       .  S
Zr36         O44   2.447       .  S
Zr36        O926   2.427       .  S
O37          H53   0.990       .  S
O38          H62   0.990       .  S
O38         H932   0.990       .  S
Zr39         O42   2.401       .  S
Zr39         O44   2.425       .  S
Zr39         O45   2.404       .  S
Zr39        O899   2.423       .  S
Zr40         O43   2.463       .  S
Zr40         O46   2.688       .  S
Zr40        O921   2.463       .  S
O41        Zr920   2.463       .  S
O41          H49   0.960       .  S
O43        Zr913   2.354       .  S
O44        Zr896   2.408       .  S
O44          H48   0.966       .  S
O45        Zr893   2.395       .  S
O45          H50   0.966       .  S
O46        Zr916   2.427       .  S
H52         O918   0.990       .  S
O63         Zr75   2.485       .  S
O63          C65   1.297       .  A
O64        Zr101   2.404   1_556  S
O64          C65   1.287   1_556  A
C65         C860   1.478       .  S
O66         Zr78   2.341       .  S
O66          C68   1.269       .  A
O67        Zr982   2.551       .  S
O67          C68   1.308       .  A
C68         C737   1.513       .  S
O69         Zr78   2.386       .  S
O69          C71   1.276       .  A
O70        Zr981   2.533       .  S
O70          C71   1.307       .  A
C71         C716   1.511       .  S
O72         Zr75   2.518       .  S
O72          C74   1.303       .  A
O73        Zr102   2.392       .  S
O73          C74   1.282       .  A
C74         C773   1.496       .  S
Zr75         O77   2.436       .  S
Zr75        O956   2.434   1_554  S
Zr75         O81   2.397   1_554  S
Zr75         O82   2.365   1_554  S
Zr75        O105   2.374       .  S
Zr75        O107   2.387       .  S
O76        Zr955   2.434       .  S
O76         H119   0.990       .  S
O77         H118   0.989       .  S
O77         H122   0.990       .  S
Zr78         O79   2.435       .  S
Zr78         O80   2.435       .  S
Zr78        O962   2.368       .  S
Zr78        O961   2.351       .  S
Zr78        O986   2.360       .  S
Zr78        O988   2.374       .  S
O79         H120   0.990       .  S
O79         H123   0.990       .  S
O80         H113   0.990       .  S
O81        Zr101   2.387   1_556  S
O81        Zr958   2.351       .  S
O82        Zr102   2.388   1_556  S
O82        Zr958   2.368       .  S
O82         H989   0.965       .  S
O83         Zr95   2.373       .  S
O83          C85   1.272       .  A
O84        Zr102   2.514       .  S
O84          C85   1.302       .  A
C85         C749   1.492       .  S
O86         Zr98   2.481       .  S
O86          C88   1.296       .  A
O87        Zr101   2.419       .  S
O87          C88   1.290       .  A
C88        C2521   1.504       .  S
O89         Zr98   2.468       .  S
O89          C91   1.291       .  A
O90        Zr102   2.400       .  S
O90          C91   1.284       .  A
C91         C848   1.467       .  S
O92         Zr95   2.410       .  S
O92          C94   1.272       .  A
O93        Zr101   2.484       .  S
O93          C94   1.292       .  A
C94         C725   1.481       .  S
Zr95         O96   2.444       .  S
Zr95         O97   2.434       .  S
Zr95        O103   2.380       .  S
Zr95        O104   2.355       .  S
Zr95        O107   2.346       .  S
Zr95        O105   2.361       .  S
O96         H116   0.989       .  S
O96         H121   0.990       .  S
O97         H117   0.990       .  S
Zr98         O99   2.433       .  S
Zr98        O980   2.433   1_554  S
Zr98        O104   2.350       .  S
Zr98        O103   2.378       .  S
Zr98        O108   2.382   1_554  S
Zr98        O106   2.382   1_554  S
O99         H115   0.990       .  S
O100       Zr978   2.433       .  S
O100        H114   0.990       .  S
O100       H1004   0.990       .  S
Zr101       O950   2.533   1_554  S
Zr101       O104   2.378       .  S
Zr101       O106   2.381   1_554  S
Zr101       O107   2.418       .  S
Zr102       O947   2.551   1_554  S
Zr102       O103   2.401       .  S
Zr102       O105   2.401       .  S
Zr102       O108   2.391   1_554  S
O103        H111   0.965       .  S
O106       Zr958   2.360       .  S
O106        H990   0.966       .  S
O107        H112   0.964       .  S
O108       Zr958   2.374       .  S
H109        O962   0.965       .  S
H110        O986   0.966       .  S
H124        O980   0.990       .  S
O125       Zr137   2.460       .  S
O125       C1007   1.290       .  A
O126       Zr163   2.407       .  S
O126        C127   1.286       .  A
C127       O1005   1.290       .  A
C127        C869   1.493       .  S
O128       Zr140   2.435       .  S
O128        C130   1.284       .  A
O129       Zr164   2.483       .  S
O129        C130   1.294       .  A
C130        C677   1.486       .  S
O131       Zr140   2.422       .  S
O131       C1013   1.285   1_554  A
O132       Zr163   2.412       .  S
O132        C133   1.284       .  A
C133       O1011   1.285       .  A
C133        C701   1.450       .  S
O134       Zr137   2.509       .  S
O134        C136   1.294       .  A
O135       Zr164   2.387       .  S
O135        C136   1.262       .  A
C136        C653   1.497       .  S
Zr137       O138   2.435       .  S
Zr137       O139   2.437       .  S
Zr137       O143   2.380       .  S
Zr137       O144   2.355       .  S
Zr137       O167   2.353       .  S
Zr137      O1049   2.375       .  S
O138        H181   0.990       .  S
O139        H180   0.990       .  S
O139        H184   0.990       .  S
Zr140       O141   2.436       .  S
Zr140       O142   2.434       .  S
Zr140       O144   2.344       .  S
Zr140       O143   2.367       .  S
Zr140       O170   2.381       .  S
Zr140      O1048   2.350       .  S
O141        H182   0.990       .  S
O141        H185   0.990       .  S
O142        H175   0.990       .  S
O143      Zr1043   2.382   1_554  S
O144       Zr164   2.392       .  S
O144        H171   0.954       .  S
O145      Zr1037   2.389   1_554  S
O145        C147   1.277       .  A
O146       Zr164   2.438       .  S
O146        C147   1.287       .  A
C147        C689   1.452       .  S
O148       Zr160   2.500       .  S
O148        C150   1.295       .  A
O149       Zr163   2.354       .  S
O149        C150   1.256       .  A
C150        C665   1.477       .  S
O151      Zr1040   2.436   1_554  S
O151        C153   1.288       .  A
O152       Zr164   2.458       .  S
O152        C153   1.295       .  A
C153        C764   1.493       .  S
O154       Zr157   2.416       .  S
O154        C156   1.271       .  A
O155       Zr163   2.502       .  S
O155        C156   1.288       .  A
C156        C641   1.507       .  S
Zr157      O1025   2.389       .  S
Zr157       O158   2.444       .  S
Zr157       O159   2.435       .  S
Zr157       O166   2.353       .  S
Zr157       O169   2.392       .  S
Zr157      O1045   2.381       .  S
Zr157      O1047   2.352       .  S
O158        H178   0.990       .  S
O158        H183   0.989       .  S
O159       H1059   0.990       .  S
Zr160      O1031   2.436       .  S
Zr160       O161   2.434       .  S
Zr160       O162   2.435       .  S
Zr160       O166   2.361       .  S
Zr160       O168   2.336       .  S
Zr160      O1045   2.370       .  S
Zr160      O1050   2.399       .  S
O161        H177   0.990       .  S
O162        H186   0.990       .  S
O162       H1056   0.990       .  S
Zr163       O166   2.381       .  S
Zr163       O168   2.403       .  S
Zr163       O169   2.391       .  S
Zr163      O1023   2.382       .  S
Zr164       O165   2.384       .  S
Zr164       O167   2.393       .  S
Zr164       O170   2.388       .  S
O165      Zr1037   2.381   1_554  S
O165      Zr1040   2.370   1_554  S
O165       H1053   0.963       .  S
O167      Zr1037   2.352   1_554  S
O168      Zr1020   2.350       .  S
O168        H172   0.963       .  S
O169      Zr1017   2.375       .  S
O169        H174   0.966       .  S
O170      Zr1040   2.399   1_554  S
H173       O1045   0.963       .  S
H176       O1042   0.990   1_554  S
H179       O1039   0.990       .  S
O187       Zr199   2.433       .  S
O187       C1069   1.287       .  A
O188       Zr225   2.470       .  S
O188        C189   1.296       .  A
C189       O1067   1.287       .  A
C189       C1713   1.515       .  S
O190       Zr202   2.439       .  S
O190        C192   1.286       .  A
O191       Zr226   2.440       .  S
O191        C192   1.286       .  A
C192        C608   1.470       .  S
O193       Zr202   2.386   1_455  S
O193       C1075   1.279   1_554  A
O194       Zr225   2.456   1_455  S
O194        C195   1.291       .  A
C195       O1073   1.279       .  A
C195        C704   1.457       .  S
O196       Zr199   2.481       .  S
O196        C198   1.289       .  A
O197       Zr226   2.391       .  S
O197        C198   1.267       .  A
C198        C632   1.482       .  S
Zr199       O200   2.434       .  S
Zr199       O201   2.433       .  S
Zr199       O205   2.389       .  S
Zr199       O206   2.362       .  S
Zr199       O229   2.364       .  S
Zr199      O1111   2.387       .  S
O200        H243   0.990       .  S
O201        H242   0.990       .  S
O201        H246   0.990       .  S
Zr202       O203   2.435   1_655  S
Zr202       O204   2.435   1_655  S
Zr202       O206   2.338       .  S
Zr202       O205   2.383       .  S
Zr202       O230   2.374       .  S
Zr202       O232   2.379       .  S
O203        H244   0.990       .  S
O203        H247   0.990       .  S
O204        H237   0.990       .  S
O205      Zr1105   2.388   1_554  S
O206       Zr226   2.384       .  S
O206        H233   0.957       .  S
O207      Zr1099   2.436       .  S
O207        C209   1.288       .  A
O208       Zr226   2.354       .  S
O208        C209   1.273       .  A
C209        C692   1.433       .  S
O210       Zr222   2.545       .  S
O210        C212   1.308       .  A
O211       Zr225   2.356       .  S
O211        C212   1.277       .  A
C212        C593   1.483       .  S
O213      Zr1102   2.478   1_554  S
O213        C215   1.294       .  A
O214       Zr226   2.446       .  S
O214        C215   1.291       .  A
C215        C776   1.497       .  S
O216       Zr219   2.375       .  S
O216        C218   1.274       .  A
O217       Zr225   2.526       .  S
O217        C218   1.304       .  A
C218        C620   1.483       .  S
Zr219      O1087   2.436       .  S
Zr219       O220   2.439       .  S
Zr219       O221   2.435       .  S
Zr219       O228   2.363       .  S
Zr219       O231   2.378       .  S
Zr219      O1107   2.367       .  S
Zr219      O1109   2.321       .  S
O220        H240   0.990       .  S
O220        H245   0.990       .  S
O221       H1121   0.990       .  S
Zr222      O1093   2.478       .  S
Zr222       O223   2.445       .  S
Zr222      O1104   2.434       .  S
Zr222       O228   2.357       .  S
Zr222      O1107   2.401       .  S
Zr222      O1112   2.389       .  S
Zr222      O1110   2.338       .  S
O223        H239   0.989       .  S
O224      Zr1102   2.434   1_554  S
O224        H238   0.990       .  S
O224       H1128   0.990   1_554  S
Zr225       O228   2.354       .  S
Zr225       O231   2.399       .  S
Zr225      O1085   2.388       .  S
Zr225      O1110   2.399       .  S
Zr226       O227   2.391       .  S
Zr226       O229   2.394       .  S
Zr226       O232   2.378       .  S
O227      Zr1099   2.367       .  S
O227      Zr1102   2.401   1_554  S
O227        H235   0.964       .  S
O229      Zr1099   2.321       .  S
O230      Zr1102   2.338   1_554  S
O230      Zr1105   2.399   1_554  S
O230       H1114   0.963   1_554  S
O231      Zr1079   2.387       .  S
O231        H236   0.966       .  S
O232      Zr1102   2.389   1_554  S
H234       O1110   0.963       .  S
H241       O1101   0.990       .  S
H248       O1104   0.990       .  S
O249       Zr261   2.524       .  S
O249        C251   1.280       .  A
O250       Zr287   2.371       .  S
O250        C251   1.248       .  A
C251        C821   1.502       .  S
O252      Zr2024   2.461       .  S
O252        C254   1.289       .  A
O253       Zr288   2.374       .  S
O253       C2014   1.273       .  A
C254       O2013   1.273       .  A
C254        C545   1.458       .  S
O255       Zr264   2.468       .  S
O255        C257   1.291       .  A
O256       Zr287   2.458       .  S
O256        C257   1.297       .  A
C257        C581   1.495       .  S
O258       Zr261   2.378       .  S
O258        C260   1.278       .  A
O259       Zr288   2.503       .  S
O259        C260   1.301       .  A
C260        C728   1.490       .  S
Zr261       O262   2.434       .  S
Zr261       O263   2.434       .  S
Zr261       O267   2.356       .  S
Zr261       O268   2.414       .  S
Zr261       O291   2.415       .  S
Zr261       O293   2.345       .  S
O262        H305   0.990       .  S
O263        H304   0.990       .  S
O263        H308   0.990       .  S
Zr264      O2012   2.461       .  S
Zr264      O2025   2.436       .  S
Zr264      O2026   2.438       .  S
Zr264       O268   2.381       .  S
Zr264       O267   2.362       .  S
Zr264       O292   2.386       .  S
Zr264       O294   2.365       .  S
O265      Zr2024   2.436       .  S
O265        H306   0.990       .  S
O265        H309   0.990       .  S
O266      Zr2024   2.438       .  S
O266        H299   0.990       .  S
O267       Zr287   2.356       .  S
O268       Zr288   2.402       .  S
O268        H295   0.966       .  S
O269       Zr281   2.630       .  S
O269        C271   1.327       .  A
O270       Zr288   2.362       .  S
O270        C271   1.276       .  A
C271        C569   1.539       .  S
O272       Zr284   2.421       .  S
O272        C274   1.280       .  A
O273       Zr287   2.380       .  S
O273        C274   1.277       .  A
C274        C809   1.444       .  S
O275       Zr284   2.377       .  S
O275        C277   1.264       .  A
O276       Zr288   2.533       .  S
O276        C277   1.298       .  A
C277        C713   1.517       .  S
O278       Zr281   2.538       .  S
O278        C280   1.309       .  A
O279       Zr287   2.455       .  S
O279        C280   1.291       .  A
C280        C557   1.515       .  S
Zr281       O282   2.434       .  S
Zr281       O283   2.434       .  S
Zr281       O289   2.343       .  S
Zr281       O290   2.422       .  S
Zr281       O293   2.405       .  S
Zr281       O291   2.377       .  S
O282        H302   0.990       .  S
O282        H307   0.990       .  S
O283        H303   0.990       .  S
Zr284       O285   2.435       .  S
Zr284       O286   2.437       .  S
Zr284       O290   2.352       .  S
Zr284       O289   2.384       .  S
Zr284       O294   2.385       .  S
Zr284       O292   2.356       .  S
O285        H301   0.990       .  S
O286        H300   0.990       .  S
O286        H310   0.990       .  S
Zr287       O290   2.386       .  S
Zr287       O292   2.364       .  S
Zr287       O293   2.406       .  S
Zr288       O289   2.403       .  S
Zr288       O291   2.397       .  S
Zr288       O294   2.392       .  S
O289        H297   0.961       .  S
O292        H296   0.964       .  S
O293        H298   0.962       .  S
O311       Zr323   2.536       .  S
O311        C313   1.282   1_655  A
O312       Zr349   2.353   1_455  S
O312        C313   1.248       .  A
C313        C584   1.506       .  S
O314       Zr326   2.456       .  S
O314        C316   1.288       .  A
O315       Zr350   2.326       .  S
O315        C316   1.269       .  A
C316        C536   1.439       .  S
O317       Zr326   2.455   1_455  S
O317        C319   1.288       .  A
O318       Zr349   2.448   1_455  S
O318        C319   1.295       .  A
C319        C824   1.488       .  S
O320       Zr323   2.408       .  S
O320        C322   1.281       .  A
O321       Zr350   2.478       .  S
O321        C322   1.297       .  A
C322        C752   1.472       .  S
Zr323       O324   2.431       .  S
Zr323       O325   2.434       .  S
Zr323       O329   2.371       .  S
Zr323       O330   2.417       .  S
Zr323       O353   2.407       .  S
Zr323       O355   2.352       .  S
O324        H367   0.990       .  S
O325        H366   0.990       .  S
O325        H370   0.990       .  S
Zr326       O327   2.438       .  S
Zr326       O328   2.435       .  S
Zr326       O330   2.361       .  S
Zr326       O329   2.371       .  S
Zr326       O354   2.374       .  S
Zr326       O356   2.377       .  S
O327        H368   0.990       .  S
O327        H371   0.990       .  S
O328        H361   0.990       .  S
O329       Zr349   2.364       .  S
O330       Zr350   2.390       .  S
O330        H357   0.964       .  S
O331       Zr343   2.649       .  S
O331        C333   1.329       .  A
O332       Zr350   2.329       .  S
O332        C333   1.268       .  A
C333        C572   1.560       .  S
O334       Zr346   2.440       .  S
O334        C336   1.286   1_655  A
O335       Zr349   2.386   1_455  S
O335        C336   1.277       .  A
C336        C785   1.454       .  S
O337       Zr346   2.389       .  S
O337        C339   1.265       .  A
O338       Zr350   2.533       .  S
O338        C339   1.298       .  A
C339        C740   1.517       .  S
O340       Zr343   2.519       .  S
O340        C342   1.304       .  A
O341       Zr349   2.428       .  S
O341        C342   1.283       .  A
C342        C521   1.486       .  S
Zr343       O344   2.435       .  S
Zr343       O345   2.433       .  S
Zr343       O351   2.331       .  S
Zr343       O352   2.439       .  S
Zr343       O355   2.403       .  S
Zr343       O353   2.366       .  S
O344        H364   0.990       .  S
O344        H369   0.990       .  S
O345        H365   0.990       .  S
Zr346       O347   2.435       .  S
Zr346       O348   2.438       .  S
Zr346       O352   2.355       .  S
Zr346       O351   2.390       .  S
Zr346       O356   2.397       .  S
Zr346       O354   2.356       .  S
O347        H363   0.990       .  S
O348        H362   0.990       .  S
O348        H372   0.989       .  S
Zr349       O352   2.384       .  S
Zr349       O354   2.355       .  S
Zr349       O355   2.414       .  S
Zr350       O351   2.382       .  S
Zr350       O353   2.391       .  S
Zr350       O356   2.383       .  S
O351        H359   0.957       .  S
O354        H358   0.965       .  S
O355        H360   0.963       .  S
O373       Zr385   2.410       .  S
O373        C375   1.281       .  A
O374       Zr411   2.482       .  S
O374        C375   1.298       .  A
C375        C680   1.485       .  S
O376       Zr388   2.513       .  S
O376        C378   1.301       .  A
O377       Zr412   2.387       .  S
O377        C378   1.279       .  A
C378        C524   1.487       .  S
O379       Zr388   2.531       .  S
O379        C381   1.287       .  A
O380       Zr411   2.366       .  S
O380        C381   1.244       .  A
C381        C512   1.505       .  S
O382       Zr385   2.388       .  S
O382        C384   1.275       .  A
O383       Zr412   2.462       .  S
O383        C384   1.288       .  A
C384        C605   1.464   1_455  S
Zr385       O386   2.434       .  S
Zr385       O387   2.439       .  S
Zr385       O391   2.338       .  S
Zr385       O392   2.402       .  S
Zr385       O415   2.354       .  S
Zr385       O417   2.386       .  S
O386        H429   0.990       .  S
O387        H428   0.990       .  S
O387        H432   0.990       .  S
Zr388       O389   2.435       .  S
Zr388       O390   2.434       .  S
Zr388       O392   2.401       .  S
Zr388       O391   2.384       .  S
Zr388       O416   2.391       .  S
Zr388       O418   2.391       .  S
O389        H430   0.990       .  S
O389        H433   0.990       .  S
O390        H423   0.990       .  S
O391       Zr411   2.373       .  S
O392       Zr412   2.383       .  S
O392        H419   0.966       .  S
O393       Zr405   2.607       .  S
O393        C395   1.322   1_455  A
O394       Zr412   2.296   1_655  S
O394        C395   1.266       .  A
C395        C497   1.495       .  S
O396       Zr408   2.383       .  S
O396        C398   1.277       .  A
O397       Zr411   2.468       .  S
O397        C398   1.291       .  A
C398        C668   1.459       .  S
O399       Zr408   2.414       .  S
O399        C401   1.275       .  A
O400       Zr412   2.455       .  S
O400        C401   1.283       .  A
C401        C596   1.494       .  S
O402       Zr405   2.539       .  S
O402        C404   1.310       .  A
O403       Zr411   2.408       .  S
O403        C404   1.287       .  A
C404        C560   1.509       .  S
Zr405       O406   2.436       .  S
Zr405       O407   2.435       .  S
Zr405       O413   2.359       .  S
Zr405       O414   2.386       .  S
Zr405       O417   2.407       .  S
Zr405       O415   2.349       .  S
O406        H426   0.990       .  S
O406        H431   0.990       .  S
O407        H427   0.990       .  S
Zr408       O409   2.436       .  S
Zr408       O410   2.443       .  S
Zr408       O414   2.363       .  S
Zr408       O413   2.351       .  S
Zr408       O418   2.385       .  S
Zr408       O416   2.366       .  S
O409        H425   0.990       .  S
O410        H424   0.990       .  S
O410        H434   0.990       .  S
Zr411       O414   2.386       .  S
Zr411       O416   2.412       .  S
Zr411       O417   2.394       .  S
Zr412       O413   2.390       .  S
Zr412       O415   2.366       .  S
Zr412       O418   2.380       .  S
O413        H421   0.965       .  S
O416        H420   0.962       .  S
O417        H422   0.966       .  S
O435       Zr447   2.378       .  S
O435        C437   1.265       .  A
O436       Zr473   2.503       .  S
O436        C437   1.285       .  A
C437        C656   1.484       .  S
O438       Zr450   2.472       .  S
O438        C440   1.292       .  A
O439       Zr474   2.321       .  S
O439        C440   1.270       .  A
C440        C533   1.439       .  S
O441       Zr450   2.581       .  S
O441        C443   1.307       .  A
O442       Zr473   2.338       .  S
O442        C443   1.246       .  A
C443        C509   1.508       .  S
O444       Zr447   2.389       .  S
O444        C446   1.276       .  A
O445       Zr474   2.478       .  S
O445        C446   1.292       .  A
C446        C629   1.466       .  S
Zr447       O448   2.437       .  S
Zr447       O449   2.441       .  S
Zr447       O453   2.363       .  S
Zr447       O454   2.360       .  S
Zr447       O477   2.356       .  S
Zr447       O479   2.382       .  S
O448        H491   0.990       .  S
O449        H490   0.990       .  S
O449        H494   0.990       .  S
Zr450       O451   2.436       .  S
Zr450       O452   2.435       .  S
Zr450       O454   2.404       .  S
Zr450       O453   2.357       .  S
Zr450       O478   2.345       .  S
Zr450       O480   2.431       .  S
O451        H492   0.990       .  S
O451        H495   0.990       .  S
O452        H485   0.990       .  S
O453       Zr473   2.378       .  S
O454       Zr474   2.392       .  S
O454        H481   0.966       .  S
O455       Zr467   2.622       .  S
O455        C457   1.324       .  A
O456       Zr474   2.280       .  S
O456        C457   1.262       .  A
C457        C500   1.500       .  S
O458       Zr470   2.435       .  S
O458        C460   1.278       .  A
O459       Zr473   2.463       .  S
O459        C460   1.288       .  A
C460        C644   1.513       .  S
O461       Zr470   2.402       .  S
O461        C463   1.278       .  A
O462       Zr474   2.502       .  S
O462        C463   1.297       .  A
C463        C617   1.483       .  S
O464       Zr467   2.488       .  S
O464        C466   1.298       .  A
O465       Zr473   2.334       .  S
O465        C466   1.275       .  A
C466        C548   1.448       .  S
Zr467       O468   2.435       .  S
Zr467       O469   2.435       .  S
Zr467       O475   2.313       .  S
Zr467       O476   2.416       .  S
Zr467       O479   2.392       .  S
Zr467       O477   2.334       .  S
O468        H488   0.990       .  S
O468        H493   0.990       .  S
O469        H489   0.990       .  S
Zr470       O471   2.433       .  S
Zr470       O472   2.436       .  S
Zr470       O476   2.378       .  S
Zr470       O475   2.359       .  S
Zr470       O480   2.393       .  S
Zr470       O478   2.341       .  S
O471        H487   0.990       .  S
O472        H486   0.990       .  S
O472        H496   0.990       .  S
Zr473       O476   2.392       .  S
Zr473       O478   2.390       .  S
Zr473       O479   2.406       .  S
Zr474       O475   2.356       .  S
Zr474       O477   2.347       .  S
Zr474       O480   2.381       .  S
O475        H483   0.957       .  S
O478        H482   0.964       .  S
O479        H484   0.964       .  S
C497        C498   1.420       .  A
C497        C502   1.408       .  A
C498        C499   1.413       .  A
C498        H507   1.076       .  S
C499        C500   1.405       .  A
C499        S503   1.795       .  S
C500        C501   1.420       .  A
C501        C502   1.411       .  A
C501        H508   1.076       .  S
C502        S504   1.802       .  S
S503        H506   1.406       .  S
S504        H505   1.406       .  S
C509        C510   1.427       .  A
C509        C514   1.403       .  A
C510        C511   1.403       .  A
C510        H519   1.083       .  S
C511        C512   1.402       .  A
C511        S515   1.801       .  S
C512        C513   1.426       .  A
C513        C514   1.410       .  A
C513        H520   1.078       .  S
C514        S516   1.802       .  S
S515        H518   1.404       .  S
S516        H517   1.405       .  S
C521        C522   1.406   1_655  A
C521        C526   1.414   1_655  A
C522       C2283   1.405   1_545  A
C522        H531   1.084   1_455  S
C523        C524   1.414       .  A
C523       C2282   1.405       .  A
C523        S527   1.804       .  S
C524        C525   1.406       .  A
C525       C2286   1.410       .  A
C525        H532   1.084       .  S
C526       C2285   1.410   1_545  A
C526        S528   1.802       .  S
S527        H530   1.406       .  S
S528        H529   1.406   1_455  S
C533        C534   1.401       .  A
C533        C538   1.410       .  A
C534        C535   1.390       .  A
C534        H543   1.085       .  S
C535        C536   1.408       .  A
C535        S539   1.804       .  S
C536        C537   1.401       .  A
C537        C538   1.393       .  A
C537        H544   1.085       .  S
C538        S540   1.803       .  S
S539        H542   1.406       .  S
S540        H541   1.406       .  S
C545        C546   1.401       .  A
C545        C550   1.409       .  A
C546        C547   1.396       .  A
C546        H555   1.083       .  S
C547        C548   1.412       .  A
C547        S551   1.807       .  S
C548        C549   1.399       .  A
C549        C550   1.392       .  A
C549        H556   1.085       .  S
C550        S552   1.800       .  S
S551        H554   1.407       .  S
S552        H553   1.407       .  S
C557        C558   1.415       .  A
C557        C562   1.415       .  A
C558        C559   1.410       .  A
C558        H567   1.079       .  S
C559        C560   1.412       .  A
C559        S563   1.803       .  S
C560        C561   1.416       .  A
C561        C562   1.416       .  A
C561        H568   1.084       .  S
C562        S564   1.801       .  S
S563        H566   1.406       .  S
S564        H565   1.407       .  S
C569        C570   1.430       .  A
C569        C574   1.407       .  A
C570        C571   1.431       .  A
C570        H579   1.083       .  S
C571        C572   1.417       .  A
C571        S575   1.797       .  S
C572        C573   1.438       .  A
C573        C574   1.420       .  A
C573        H580   1.082       .  S
C574        S576   1.801       .  S
S575        H578   1.405       .  S
S576        H577   1.406       .  S
C581        C582   1.418       .  A
C581        C586   1.400       .  A
C582        C583   1.425       .  A
C582        H591   1.083       .  S
C583        C584   1.415       .  A
C583        S587   1.798       .  S
C584        C585   1.411       .  A
C585        C586   1.386       .  A
C585        H592   1.071       .  S
C586        S588   1.803       .  S
S587        H590   1.405       .  S
S588        H589   1.406       .  S
C593        C594   1.405       .  A
C593        C598   1.405   1_655  A
C594        C595   1.404       .  A
C594        H603   1.065       .  S
C595        C596   1.410   1_655  A
C595        S599   1.801       .  S
C596        C597   1.410       .  A
C597        C598   1.403       .  A
C597        H604   1.077       .  S
C598        S600   1.799       .  S
S599        H602   1.399       .  S
S600        H601   1.407       .  S
C605        C606   1.410       .  A
C605        C610   1.399       .  A
C606        C607   1.399       .  A
C606        H615   1.084   1_655  S
C607        C608   1.402       .  A
C607        S611   1.801       .  S
C608        C609   1.410       .  A
C609        C610   1.396       .  A
C609        H616   1.074       .  S
C610        S612   1.803       .  S
S611        H614   1.407       .  S
S612        H613   1.404       .  S
C617        C618   1.392       .  A
C617        C622   1.427       .  A
C618        C619   1.400       .  A
C618        H627   1.083       .  S
C619        C620   1.423       .  A
C619        S623   1.805       .  S
C620        C621   1.394       .  A
C621        C622   1.410       .  A
C621        H628   1.082       .  S
C622        S624   1.799       .  S
S623        H626   1.407       .  S
S624        H625   1.407       .  S
C629        C630   1.410       .  A
C629        C634   1.401       .  A
C630        C631   1.401       .  A
C630        H639   1.084       .  S
C631        C632   1.405       .  A
C631        S635   1.798       .  S
C632        C633   1.413       .  A
C633        C634   1.395       .  A
C633        H640   1.080       .  S
C634        S636   1.803       .  S
S635        H638   1.405       .  S
S636        H637   1.405       .  S
C641        C642   1.400       .  A
C641        C646   1.409       .  A
C642        C643   1.402       .  A
C642        H651   1.075       .  S
C643        C644   1.421       .  A
C643        S647   1.808       .  S
C644        C645   1.418       .  A
C645        C646   1.415       .  A
C645        H652   1.082       .  S
C646        S648   1.796       .  S
S647        H650   1.407       .  S
S648        H649   1.406       .  S
C653        C654   1.403       .  A
C653        C658   1.429       .  A
C654        C655   1.410       .  A
C654        H663   1.082       .  S
C655        C656   1.417       .  A
C655        S659   1.795       .  S
C656        C657   1.396       .  A
C657        C658   1.394       .  A
C657        H664   1.084       .  S
C658        S660   1.815       .  S
S659        H662   1.407       .  S
S660        H661   1.407       .  S
C665        C666   1.393       .  A
C665        C670   1.433       .  A
C666        C667   1.393       .  A
C666        H675   1.084       .  S
C667        C668   1.411       .  A
C667        S671   1.774       .  S
C668        C669   1.393       .  A
C669        C670   1.394       .  A
C669        H676   1.084       .  S
C670        S672   1.814       .  S
S671        H674   1.401       .  S
S672        H673   1.407       .  S
C677        C678   1.414       .  A
C677        C682   1.404       .  A
C678        C679   1.403       .  A
C678        H687   1.072       .  S
C679        C680   1.401       .  A
C679        S683   1.799       .  S
C680        C681   1.414       .  A
C681        C682   1.402       .  A
C681        H688   1.084       .  S
C682        S684   1.801       .  S
S683        H686   1.406       .  S
S684        H685   1.407       .  S
C689        C690   1.403       .  A
C689        C694   1.411       .  A
C690        C691   1.401       .  A
C690        H699   1.083       .  S
C691        C692   1.407       .  A
C691        S695   1.803       .  S
C692        C693   1.387       .  A
C693        C694   1.371       .  A
C693       H1580   1.087       .  S
C694       S1576   1.793   1_554  S
S695        H698   1.406       .  S
S696       C1574   1.793       .  S
S696        H697   1.408       .  S
H700       C1573   1.087       .  S
C701        C702   1.389       .  A
C701       C1586   1.413       .  A
C702        C703   1.390       .  A
C702        H711   1.084       .  S
C703        C704   1.421       .  A
C703        S707   1.810       .  S
C704       C1585   1.394       .  A
C705        C706   1.397       .  A
C705       C1584   1.394       .  A
C705        H712   1.083       .  S
C706       C1581   1.413       .  A
C706        S708   1.807       .  S
S707        H710   1.407       .  S
S708        H709   1.407       .  S
C713        C714   1.402       .  A
C713        C718   1.432       .  A
C714        C715   1.407       .  A
C714        H723   1.082       .  S
C715        C716   1.425       .  A
C715        S719   1.802       .  S
C716        C717   1.402       .  A
C717        C718   1.418       .  A
C717        H724   1.084       .  S
C718        S720   1.798       .  S
S719        H722   1.408       .  S
S720        H721   1.396       .  S
C725        C726   1.411       .  A
C725        C730   1.407       .  A
C726        C727   1.411       .  A
C726        H735   1.084       .  S
C727        C728   1.413       .  A
C727        S731   1.794       .  S
C728        C729   1.409       .  A
C729        C730   1.395       .  A
C729        H736   1.085       .  S
C730        S732   1.797       .  S
S731       H2494   1.404       .  S
S732        H733   1.405       .  S
H734       S2491   1.404       .  S
C737        C738   1.415       .  A
C737        C742   1.416       .  A
C738        C739   1.404       .  A
C738        H747   1.083       .  S
C739        C740   1.411       .  A
C739        S743   1.802       .  S
C740        C741   1.421       .  A
C741        C742   1.425       .  A
C741        H748   1.083       .  S
C742        S744   1.799       .  S
S743        H746   1.406       .  S
S744        H745   1.405       .  S
C749        C750   1.405       .  A
C749        C754   1.427       .  A
C750        C751   1.413       .  A
C750        H759   1.083       .  S
C751        C752   1.418       .  A
C751        S755   1.803       .  S
C752        C753   1.391       .  A
C753        C754   1.395       .  A
C753        H760   1.084       .  S
C754        S756   1.815       .  S
S755        H758   1.406       .  S
S756        H757   1.407       .  S
C761       C1848   1.504       .  S
C761        C762   1.407       .  A
C761        C766   1.423       .  A
C762        C763   1.397       .  A
C762       H3411   1.083   1_554  S
C763        C764   1.417       .  A
C763       S1647   1.805       .  S
C764        C765   1.406       .  A
C765        C766   1.411       .  A
C765        H772   1.084       .  S
C766        S768   1.799       .  S
S767       C1643   1.805       .  S
S767        H770   1.407       .  S
S768        H769   1.408       .  S
H771       C3402   1.083       .  S
C773        C774   1.410       .  A
C773        C778   1.413       .  A
C774        C775   1.406       .  A
C774        H783   1.084       .  S
C775        C776   1.414       .  A
C775        S779   1.804       .  S
C776        C777   1.411       .  A
C777        C778   1.410       .  A
C777       H1664   1.084   1_554  S
C778       S1660   1.799   1_554  S
S779        H782   1.407       .  S
S780       C1658   1.799       .  S
S780        H781   1.406       .  S
H784       C1657   1.084       .  S
C785        C786   1.407       .  A
C785        C790   1.402       .  A
C786        C787   1.397       .  A
C786        H795   1.084       .  S
C787        C788   1.405       .  A
C787        S791   1.805       .  S
C788        C789   1.406       .  A
C789        C790   1.385       .  A
C789        H796   1.084       .  S
C790        S792   1.803       .  S
S791        H794   1.403       .  S
S792        H793   1.399       .  S
C797        C798   1.311       .  A
C797        C802   1.399       .  A
C798        C799   1.368       .  A
C798        H807   1.033       .  S
C799        C800   1.389       .  A
C799        S803   2.237       .  S
C800        C801   1.434       .  A
C801        C802   1.430       .  A
C801        H808   1.081       .  S
C802        S804   1.773       .  S
S803        H806   1.241       .  S
S804        H805   1.408       .  S
C809        C810   1.390       .  A
C809        C814   1.406       .  A
C810        C811   1.388       .  A
C810        H819   1.084       .  S
C811        C812   1.426       .  A
C811        S815   1.812       .  S
C812        C813   1.404       .  A
C813        C814   1.389       .  A
C813        H820   1.084       .  S
C814        S816   1.804       .  S
S815        H818   1.407       .  S
S816        H817   1.401       .  S
C821        C822   1.413       .  A
C821        C826   1.414       .  A
C822        C823   1.390       .  A
C822        H831   1.070       .  S
C823        C824   1.396       .  A
C823        S827   1.810       .  S
C824        C825   1.415       .  A
C825        C826   1.420       .  A
C825        H832   1.082       .  S
C826        S828   1.799       .  S
S827        H830   1.399       .  S
S828        H829   1.404       .  S
C833       C1069   1.515       .  S
C833       C2594   1.416       .  A
C833       C1718   1.418   1_655  A
C834        C835   1.405   1_665  A
C834       C2593   1.416       .  A
C834        H843   1.083       .  S
C835        C836   1.415       .  A
C835        S839   1.803       .  S
C836       C1717   1.415   1_545  A
C837       C1716   1.415   1_565  A
C837       C2598   1.408       .  A
C837       H2604   1.083   1_565  S
C838       C1713   1.418   1_455  A
C838       C2597   1.408       .  A
C838        S840   1.800       .  S
S839        H842   1.408       .  S
S840        H841   1.408   1_455  S
H844       C2597   1.083       .  S
C845        C846   1.398       .  A
C845        C850   1.417       .  A
C846        C847   1.402       .  A
C846        H855   1.083       .  S
C847        C848   1.411       .  A
C847        S851   1.796       .  S
C848        C849   1.396       .  A
C849        C850   1.397       .  A
C849       H1736   1.084   1_554  S
C850       S1732   1.802   1_554  S
S851        H854   1.407       .  S
S852       C1730   1.802       .  S
S852        H853   1.405       .  S
H856       C1729   1.084       .  S
C857        C862   1.410       .  A
C857       C1738   1.403       .  A
C858        C859   1.405       .  A
C858       C1737   1.403       .  A
C858        H867   1.084       .  S
C859        C860   1.417       .  A
C859        S863   1.801       .  S
C860       C1741   1.403   1_554  A
C861        C862   1.395       .  A
C861       C1740   1.403       .  A
C861        H868   1.085       .  S
C862        S864   1.796       .  S
S863        H866   1.399       .  S
S864        H865   1.403       .  S
C869        C870   1.409       .  A
C869       C1754   1.425       .  A
C870        C871   1.396       .  A
C870        H879   1.083       .  S
C871        C872   1.411       .  A
C871        S875   1.805       .  S
C872       C1753   1.399       .  A
C873        C874   1.402       .  A
C873       C1752   1.399       .  A
C873        H880   1.083       .  S
C874       C1749   1.425       .  A
C874        S876   1.810       .  S
S875        H878   1.408       .  S
S876        H877   1.407       .  S
O881       Zr893   2.463       .  S
O882       Zr919   2.388       .  S
O882        C883   1.281       .  A
C883       C1752   1.474       .  S
O884       Zr896   2.540       .  S
O884        C886   1.290       .  A
O885       Zr920   2.539       .  S
O885        C886   1.275       .  A
C886       C1680   1.370       .  S
O887       Zr896   2.454       .  S
O888       Zr919   2.420       .  S
O888        C889   1.283       .  A
C889       C1737   1.477       .  S
O890       Zr893   2.719       .  S
O890        C892   1.337       .  A
O891       Zr920   2.549       .  S
O891        C892   1.285       .  A
C892       C1677   1.484       .  S
Zr893       O894   2.435       .  S
Zr893       O895   2.443       .  S
Zr893       O899   2.569       .  S
Zr893       O900   2.340       .  S
Zr893       O923   2.456       .  S
O894        H937   0.990       .  S
O895        H936   0.990       .  S
O895        H940   0.990       .  S
Zr896       O897   2.440       .  S
Zr896       O898   2.436       .  S
Zr896       O900   2.478       .  S
Zr896       O899   2.564       .  S
Zr896       O926   2.615       .  S
O897        H938   0.990       .  S
O897        H941   0.990       .  S
O898        H931   0.990       .  S
O900       Zr920   3.587       .  S
O900        H927   0.974       .  S
O901       Zr913   2.424   1_655  S
O902       Zr920   2.447   1_655  S
O902        C903   1.289       .  A
C903       C1725   1.474       .  S
O904       Zr916   2.451   1_556  S
O904        C906   1.291       .  A
O905       Zr919   2.370   1_556  S
O905        C906   1.274       .  A
C906       C1692   1.472       .  S
O907       Zr916   2.449       .  S
O908       Zr920   2.478       .  S
O908        C909   1.296       .  A
C909       C1716   1.509       .  S
O910       Zr913   2.397   1_556  S
O910        C912   1.279       .  A
O911       Zr919   2.429   1_556  S
O911        C912   1.283       .  A
C912       C1668   1.457       .  S
Zr913       O914   2.440   1_454  S
Zr913       O915   2.436   1_455  S
Zr913       O921   2.379       .  S
Zr913       O922   2.384   1_554  S
Zr913       O925   2.371       .  S
O914        H934   0.990       .  S
O914        H939   0.990       .  S
O915        H935   0.990       .  S
Zr916       O917   2.434   1_554  S
Zr916       O918   2.433       .  S
Zr916       O922   2.414   1_554  S
Zr916       O921   2.461       .  S
Zr916       O924   2.447       .  S
O917        H933   0.990       .  S
O918        H942   0.990   1_554  S
Zr919       O922   2.401   1_554  S
Zr919       O924   2.425       .  S
Zr919       O925   2.404       .  S
Zr920       O923   2.463       .  S
Zr920       O926   2.688       .  S
O921        H929   0.960       .  S
O924        H928   0.966       .  S
O925        H930   0.966       .  S
O943       Zr955   2.485       .  S
O943        C945   1.297       .  A
O944       Zr981   2.404       .  S
O944        C945   1.287       .  A
C945       C1740   1.478       .  S
O946       Zr958   2.341       .  S
O946        C948   1.269       .  A
O947        C948   1.308       .  A
C948       C1617   1.513       .  S
O949       Zr958   2.386       .  S
O949        C951   1.276       .  A
O950        C951   1.307       .  A
C951       C1596   1.511       .  S
O952       Zr955   2.518       .  S
O952        C954   1.303       .  A
O953       Zr982   2.392       .  S
O953        C954   1.282       .  A
C954       C1653   1.496       .  S
Zr955       O957   2.436       .  S
Zr955       O961   2.397       .  S
Zr955       O962   2.365       .  S
Zr955       O985   2.374       .  S
Zr955       O987   2.387       .  S
O956        H999   0.990       .  S
O957        H998   0.989       .  S
O957       H1002   0.990       .  S
Zr958       O959   2.435       .  S
Zr958       O960   2.435       .  S
O959       H1000   0.990       .  S
O959       H1003   0.990       .  S
O960        H993   0.990       .  S
O961       Zr981   2.387       .  S
O962       Zr982   2.388       .  S
O963       Zr975   2.373       .  S
O963        C965   1.272       .  A
O964       Zr982   2.514       .  S
O964        C965   1.302       .  A
C965       C1629   1.492       .  S
O966       Zr978   2.481       .  S
O966        C968   1.296       .  A
O967       Zr981   2.419       .  S
O967        C968   1.290       .  A
C968       C3401   1.504       .  S
O969       Zr978   2.468       .  S
O969        C971   1.291       .  A
O970       Zr982   2.400       .  S
O970        C971   1.284       .  A
C971       C1728   1.467       .  S
O972       Zr975   2.410       .  S
O972        C974   1.272       .  A
O973       Zr981   2.484       .  S
O973        C974   1.292       .  A
C974       C1605   1.481       .  S
Zr975       O976   2.444       .  S
Zr975       O977   2.434       .  S
Zr975       O983   2.380       .  S
Zr975       O984   2.355       .  S
Zr975       O987   2.346       .  S
Zr975       O985   2.361       .  S
O976        H996   0.989       .  S
O976       H1001   0.990       .  S
O977        H997   0.990       .  S
Zr978       O979   2.433       .  S
Zr978       O984   2.350       .  S
Zr978       O983   2.378       .  S
Zr978       O988   2.382       .  S
Zr978       O986   2.382       .  S
O979        H995   0.990       .  S
O980        H994   0.990       .  S
Zr981       O984   2.378       .  S
Zr981       O986   2.381       .  S
Zr981       O987   2.418       .  S
Zr982       O983   2.401       .  S
Zr982       O985   2.401       .  S
Zr982       O988   2.391       .  S
O983        H991   0.965       .  S
O987        H992   0.964       .  S
O1005     Zr1017   2.460       .  S
O1006     Zr1043   2.407       .  S
O1006      C1007   1.286   1_556  A
C1007      C1749   1.493       .  S
O1008     Zr1020   2.435       .  S
O1008      C1010   1.284       .  A
O1009     Zr1044   2.483       .  S
O1009      C1010   1.294       .  A
C1010      C1557   1.486       .  S
O1011     Zr1020   2.422       .  S
O1012     Zr1043   2.412       .  S
O1012      C1013   1.284       .  A
C1013      C1581   1.450       .  S
O1014     Zr1017   2.509       .  S
O1014      C1016   1.294       .  A
O1015     Zr1044   2.387       .  S
O1015      C1016   1.262       .  A
C1016      C1533   1.497       .  S
Zr1017     O1018   2.435       .  S
Zr1017     O1019   2.437       .  S
Zr1017     O1023   2.380       .  S
Zr1017     O1024   2.355       .  S
Zr1017     O1047   2.353       .  S
O1018      H1061   0.990       .  S
O1019      H1060   0.990       .  S
O1019      H1064   0.990       .  S
Zr1020     O1021   2.436       .  S
Zr1020     O1022   2.434       .  S
Zr1020     O1024   2.344       .  S
Zr1020     O1023   2.367       .  S
Zr1020     O1050   2.381       .  S
O1021      H1062   0.990       .  S
O1021      H1065   0.990       .  S
O1022      H1055   0.990       .  S
O1024     Zr1044   2.392       .  S
O1024      H1051   0.954       .  S
O1025      C1027   1.277       .  A
O1026     Zr1044   2.438       .  S
O1026      C1027   1.287       .  A
C1027      C1569   1.452       .  S
O1028     Zr1040   2.500       .  S
O1028      C1030   1.295       .  A
O1029     Zr1043   2.354       .  S
O1029      C1030   1.256       .  A
C1030      C1545   1.477       .  S
O1031      C1033   1.288       .  A
O1032     Zr1044   2.458       .  S
O1032      C1033   1.295       .  A
C1033      C1644   1.493       .  S
O1034     Zr1037   2.416       .  S
O1034      C1036   1.271       .  A
O1035     Zr1043   2.502       .  S
O1035      C1036   1.288       .  A
C1036      C1521   1.507       .  S
Zr1037     O1038   2.444       .  S
Zr1037     O1039   2.435       .  S
Zr1037     O1046   2.353       .  S
Zr1037     O1049   2.392   1_556  S
O1038      H1058   0.990       .  S
O1038      H1063   0.989       .  S
Zr1040     O1041   2.434       .  S
Zr1040     O1042   2.435       .  S
Zr1040     O1046   2.361       .  S
Zr1040     O1048   2.336   1_556  S
O1041      H1057   0.990       .  S
O1042      H1066   0.990       .  S
Zr1043     O1046   2.381       .  S
Zr1043     O1048   2.403   1_556  S
Zr1043     O1049   2.391   1_556  S
Zr1044     O1045   2.384       .  S
Zr1044     O1047   2.393       .  S
Zr1044     O1050   2.388       .  S
O1048      H1052   0.963   1_554  S
O1049      H1054   0.966   1_554  S
O1067     Zr1079   2.433       .  S
O1068     Zr1105   2.470       .  S
O1068      C1069   1.296   1_556  A
O1070     Zr1082   2.439       .  S
O1070      C1072   1.286       .  A
O1071     Zr1106   2.440       .  S
O1071      C1072   1.286       .  A
C1072      C1488   1.470       .  S
O1073     Zr1082   2.386   1_455  S
O1074     Zr1105   2.456   1_455  S
O1074      C1075   1.291       .  A
C1075      C1584   1.457       .  S
O1076     Zr1079   2.481       .  S
O1076      C1078   1.289       .  A
O1077     Zr1106   2.391       .  S
O1077      C1078   1.267       .  A
C1078      C1512   1.482       .  S
Zr1079     O1080   2.434       .  S
Zr1079     O1081   2.433       .  S
Zr1079     O1085   2.389       .  S
Zr1079     O1086   2.362       .  S
Zr1079     O1109   2.364       .  S
O1080      H1123   0.990       .  S
O1081      H1122   0.990       .  S
O1081      H1126   0.990       .  S
Zr1082     O1083   2.435   1_655  S
Zr1082     O1084   2.435   1_655  S
Zr1082     O1086   2.338       .  S
Zr1082     O1085   2.383       .  S
Zr1082     O1110   2.374       .  S
Zr1082     O1112   2.379       .  S
O1083      H1124   0.990       .  S
O1083      H1127   0.990       .  S
O1084      H1117   0.990       .  S
O1086     Zr1106   2.384       .  S
O1086      H1113   0.957       .  S
O1087      C1089   1.288       .  A
O1088     Zr1106   2.354       .  S
O1088      C1089   1.273       .  A
C1089      C1572   1.433       .  S
O1090     Zr1102   2.545       .  S
O1090      C1092   1.308       .  A
O1091     Zr1105   2.356       .  S
O1091      C1092   1.277       .  A
C1092      C1473   1.483       .  S
O1093      C1095   1.294       .  A
O1094     Zr1106   2.446       .  S
O1094      C1095   1.291       .  A
C1095      C1656   1.497       .  S
O1096     Zr1099   2.375   1_556  S
O1096      C1098   1.274       .  A
O1097     Zr1105   2.526       .  S
O1097      C1098   1.304       .  A
C1098      C1500   1.483       .  S
Zr1099     O1100   2.439   1_554  S
Zr1099     O1101   2.435       .  S
Zr1099     O1108   2.363   1_554  S
Zr1099     O1111   2.378       .  S
O1100      H1120   0.990       .  S
O1100      H1125   0.990       .  S
Zr1102     O1103   2.445       .  S
Zr1102     O1108   2.357       .  S
O1103      H1119   0.989       .  S
O1104      H1118   0.990       .  S
Zr1105     O1108   2.354       .  S
Zr1105     O1111   2.399   1_556  S
Zr1106     O1107   2.391       .  S
Zr1106     O1109   2.394       .  S
Zr1106     O1112   2.378       .  S
O1107      H1115   0.964       .  S
O1111      H1116   0.966       .  S
O1129     Zr1141   2.524       .  S
O1129      C1131   1.280       .  A
O1130     Zr1167   2.371       .  S
O1130      C1131   1.248       .  A
C1131      C1701   1.502       .  S
O1132     Zr2904   2.461       .  S
O1132      C1134   1.289       .  A
O1133     Zr1168   2.374       .  S
O1133      C2894   1.273       .  A
C1134      O2893   1.273       .  A
C1134      C1425   1.458       .  S
O1135     Zr1144   2.468       .  S
O1135      C1137   1.291       .  A
O1136     Zr1167   2.458       .  S
O1136      C1137   1.297       .  A
C1137      C1461   1.495       .  S
O1138     Zr1141   2.378       .  S
O1138      C1140   1.278       .  A
O1139     Zr1168   2.503       .  S
O1139      C1140   1.301       .  A
C1140      C1608   1.490       .  S
Zr1141     O1142   2.434       .  S
Zr1141     O1143   2.434       .  S
Zr1141     O1147   2.356       .  S
Zr1141     O1148   2.414       .  S
Zr1141     O1171   2.415       .  S
Zr1141     O1173   2.345       .  S
O1142      H1185   0.990       .  S
O1143      H1184   0.990       .  S
O1143      H1188   0.990       .  S
Zr1144     O2892   2.461       .  S
Zr1144     O2905   2.436       .  S
Zr1144     O2906   2.438       .  S
Zr1144     O1148   2.381       .  S
Zr1144     O1147   2.362       .  S
Zr1144     O1172   2.386       .  S
Zr1144     O1174   2.365       .  S
O1145     Zr2904   2.436       .  S
O1145      H1186   0.990       .  S
O1145      H1189   0.990       .  S
O1146     Zr2904   2.438       .  S
O1146      H1179   0.990       .  S
O1147     Zr1167   2.356       .  S
O1148     Zr1168   2.402       .  S
O1148      H1175   0.966       .  S
O1149     Zr1161   2.630       .  S
O1149      C1151   1.327       .  A
O1150     Zr1168   2.362       .  S
O1150      C1151   1.276       .  A
C1151      C1449   1.539       .  S
O1152     Zr1164   2.421       .  S
O1152      C1154   1.280       .  A
O1153     Zr1167   2.380       .  S
O1153      C1154   1.277       .  A
C1154      C1689   1.444       .  S
O1155     Zr1164   2.377       .  S
O1155      C1157   1.264       .  A
O1156     Zr1168   2.533       .  S
O1156      C1157   1.298       .  A
C1157      C1593   1.517       .  S
O1158     Zr1161   2.538       .  S
O1158      C1160   1.309       .  A
O1159     Zr1167   2.455       .  S
O1159      C1160   1.291       .  A
C1160      C1437   1.515       .  S
Zr1161     O1162   2.434       .  S
Zr1161     O1163   2.434       .  S
Zr1161     O1169   2.343       .  S
Zr1161     O1170   2.422       .  S
Zr1161     O1173   2.405       .  S
Zr1161     O1171   2.377       .  S
O1162      H1182   0.990       .  S
O1162      H1187   0.990       .  S
O1163      H1183   0.990       .  S
Zr1164     O1165   2.435       .  S
Zr1164     O1166   2.437       .  S
Zr1164     O1170   2.352       .  S
Zr1164     O1169   2.384       .  S
Zr1164     O1174   2.385       .  S
Zr1164     O1172   2.356       .  S
O1165      H1181   0.990       .  S
O1166      H1180   0.990       .  S
O1166      H1190   0.990       .  S
Zr1167     O1170   2.386       .  S
Zr1167     O1172   2.364       .  S
Zr1167     O1173   2.406       .  S
Zr1168     O1169   2.403       .  S
Zr1168     O1171   2.397       .  S
Zr1168     O1174   2.392       .  S
O1169      H1177   0.961       .  S
O1172      H1176   0.964       .  S
O1173      H1178   0.962       .  S
O1191     Zr1203   2.536       .  S
O1191      C1193   1.282   1_655  A
O1192     Zr1229   2.353   1_455  S
O1192      C1193   1.248       .  A
C1193      C1464   1.506       .  S
O1194     Zr1206   2.456       .  S
O1194      C1196   1.288       .  A
O1195     Zr1230   2.326       .  S
O1195      C1196   1.269       .  A
C1196      C1416   1.439       .  S
O1197     Zr1206   2.455   1_455  S
O1197      C1199   1.288       .  A
O1198     Zr1229   2.448   1_455  S
O1198      C1199   1.295       .  A
C1199      C1704   1.488       .  S
O1200     Zr1203   2.408       .  S
O1200      C1202   1.281       .  A
O1201     Zr1230   2.478       .  S
O1201      C1202   1.297       .  A
C1202      C1632   1.472       .  S
Zr1203     O1204   2.431       .  S
Zr1203     O1205   2.434       .  S
Zr1203     O1209   2.371       .  S
Zr1203     O1210   2.417       .  S
Zr1203     O1233   2.407       .  S
Zr1203     O1235   2.352       .  S
O1204      H1247   0.990       .  S
O1205      H1246   0.990       .  S
O1205      H1250   0.990       .  S
Zr1206     O1207   2.438       .  S
Zr1206     O1208   2.435       .  S
Zr1206     O1210   2.361       .  S
Zr1206     O1209   2.371       .  S
Zr1206     O1234   2.374       .  S
Zr1206     O1236   2.377       .  S
O1207      H1248   0.990       .  S
O1207      H1251   0.990       .  S
O1208      H1241   0.990       .  S
O1209     Zr1229   2.364       .  S
O1210     Zr1230   2.390       .  S
O1210      H1237   0.964       .  S
O1211     Zr1223   2.649       .  S
O1211      C1213   1.329       .  A
O1212     Zr1230   2.329       .  S
O1212      C1213   1.268       .  A
C1213      C1452   1.560       .  S
O1214     Zr1226   2.440       .  S
O1214      C1216   1.286   1_655  A
O1215     Zr1229   2.386   1_455  S
O1215      C1216   1.277       .  A
C1216      C1665   1.454       .  S
O1217     Zr1226   2.389       .  S
O1217      C1219   1.265       .  A
O1218     Zr1230   2.533       .  S
O1218      C1219   1.298       .  A
C1219      C1620   1.517       .  S
O1220     Zr1223   2.519       .  S
O1220      C1222   1.304       .  A
O1221     Zr1229   2.428       .  S
O1221      C1222   1.283       .  A
C1222      C1401   1.486       .  S
Zr1223     O1224   2.435       .  S
Zr1223     O1225   2.433       .  S
Zr1223     O1231   2.331       .  S
Zr1223     O1232   2.439       .  S
Zr1223     O1235   2.403       .  S
Zr1223     O1233   2.366       .  S
O1224      H1244   0.990       .  S
O1224      H1249   0.990       .  S
O1225      H1245   0.990       .  S
Zr1226     O1227   2.435       .  S
Zr1226     O1228   2.438       .  S
Zr1226     O1232   2.355       .  S
Zr1226     O1231   2.390       .  S
Zr1226     O1236   2.397       .  S
Zr1226     O1234   2.356       .  S
O1227      H1243   0.990       .  S
O1228      H1242   0.990       .  S
O1228      H1252   0.989       .  S
Zr1229     O1232   2.384       .  S
Zr1229     O1234   2.355       .  S
Zr1229     O1235   2.414       .  S
Zr1230     O1231   2.382       .  S
Zr1230     O1233   2.391       .  S
Zr1230     O1236   2.383       .  S
O1231      H1239   0.957       .  S
O1234      H1238   0.965       .  S
O1235      H1240   0.963       .  S
O1253     Zr1265   2.410       .  S
O1253      C1255   1.281       .  A
O1254     Zr1291   2.482       .  S
O1254      C1255   1.298       .  A
C1255      C1560   1.485       .  S
O1256     Zr1268   2.513       .  S
O1256      C1258   1.301       .  A
O1257     Zr1292   2.387       .  S
O1257      C1258   1.279       .  A
C1258      C1404   1.487       .  S
O1259     Zr1268   2.531       .  S
O1259      C1261   1.287       .  A
O1260     Zr1291   2.366       .  S
O1260      C1261   1.244       .  A
C1261      C1392   1.505       .  S
O1262     Zr1265   2.388       .  S
O1262      C1264   1.275       .  A
O1263     Zr1292   2.462       .  S
O1263      C1264   1.288       .  A
C1264      C1485   1.464   1_455  S
Zr1265     O1266   2.434       .  S
Zr1265     O1267   2.439       .  S
Zr1265     O1271   2.338       .  S
Zr1265     O1272   2.402       .  S
Zr1265     O1295   2.354       .  S
Zr1265     O1297   2.386       .  S
O1266      H1309   0.990       .  S
O1267      H1308   0.990       .  S
O1267      H1312   0.990       .  S
Zr1268     O1269   2.435       .  S
Zr1268     O1270   2.434       .  S
Zr1268     O1272   2.401       .  S
Zr1268     O1271   2.384       .  S
Zr1268     O1296   2.391       .  S
Zr1268     O1298   2.391       .  S
O1269      H1310   0.990       .  S
O1269      H1313   0.990       .  S
O1270      H1303   0.990       .  S
O1271     Zr1291   2.373       .  S
O1272     Zr1292   2.383       .  S
O1272      H1299   0.966       .  S
O1273     Zr1285   2.607       .  S
O1273      C1275   1.322   1_455  A
O1274     Zr1292   2.296   1_655  S
O1274      C1275   1.266       .  A
C1275      C1377   1.495       .  S
O1276     Zr1288   2.383       .  S
O1276      C1278   1.277       .  A
O1277     Zr1291   2.468       .  S
O1277      C1278   1.291       .  A
C1278      C1548   1.459       .  S
O1279     Zr1288   2.414       .  S
O1279      C1281   1.275       .  A
O1280     Zr1292   2.455       .  S
O1280      C1281   1.283       .  A
C1281      C1476   1.494       .  S
O1282     Zr1285   2.539       .  S
O1282      C1284   1.310       .  A
O1283     Zr1291   2.408       .  S
O1283      C1284   1.287       .  A
C1284      C1440   1.509       .  S
Zr1285     O1286   2.436       .  S
Zr1285     O1287   2.435       .  S
Zr1285     O1293   2.359       .  S
Zr1285     O1294   2.386       .  S
Zr1285     O1297   2.407       .  S
Zr1285     O1295   2.349       .  S
O1286      H1306   0.990       .  S
O1286      H1311   0.990       .  S
O1287      H1307   0.990       .  S
Zr1288     O1289   2.436       .  S
Zr1288     O1290   2.443       .  S
Zr1288     O1294   2.363       .  S
Zr1288     O1293   2.351       .  S
Zr1288     O1298   2.385       .  S
Zr1288     O1296   2.366       .  S
O1289      H1305   0.990       .  S
O1290      H1304   0.990       .  S
O1290      H1314   0.990       .  S
Zr1291     O1294   2.386       .  S
Zr1291     O1296   2.412       .  S
Zr1291     O1297   2.394       .  S
Zr1292     O1293   2.390       .  S
Zr1292     O1295   2.366       .  S
Zr1292     O1298   2.380       .  S
O1293      H1301   0.965       .  S
O1296      H1300   0.962       .  S
O1297      H1302   0.966       .  S
O1315     Zr1327   2.378       .  S
O1315      C1317   1.265       .  A
O1316     Zr1353   2.503       .  S
O1316      C1317   1.285       .  A
C1317      C1536   1.484       .  S
O1318     Zr1330   2.472       .  S
O1318      C1320   1.292       .  A
O1319     Zr1354   2.321       .  S
O1319      C1320   1.270       .  A
C1320      C1413   1.439       .  S
O1321     Zr1330   2.581       .  S
O1321      C1323   1.307       .  A
O1322     Zr1353   2.338       .  S
O1322      C1323   1.246       .  A
C1323      C1389   1.508       .  S
O1324     Zr1327   2.389       .  S
O1324      C1326   1.276       .  A
O1325     Zr1354   2.478       .  S
O1325      C1326   1.292       .  A
C1326      C1509   1.466       .  S
Zr1327     O1328   2.437       .  S
Zr1327     O1329   2.441       .  S
Zr1327     O1333   2.363       .  S
Zr1327     O1334   2.360       .  S
Zr1327     O1357   2.356       .  S
Zr1327     O1359   2.382       .  S
O1328      H1371   0.990       .  S
O1329      H1370   0.990       .  S
O1329      H1374   0.990       .  S
Zr1330     O1331   2.436       .  S
Zr1330     O1332   2.435       .  S
Zr1330     O1334   2.404       .  S
Zr1330     O1333   2.357       .  S
Zr1330     O1358   2.345       .  S
Zr1330     O1360   2.431       .  S
O1331      H1372   0.990       .  S
O1331      H1375   0.990       .  S
O1332      H1365   0.990       .  S
O1333     Zr1353   2.378       .  S
O1334     Zr1354   2.392       .  S
O1334      H1361   0.966       .  S
O1335     Zr1347   2.622       .  S
O1335      C1337   1.324       .  A
O1336     Zr1354   2.280       .  S
O1336      C1337   1.262       .  A
C1337      C1380   1.500       .  S
O1338     Zr1350   2.435       .  S
O1338      C1340   1.278       .  A
O1339     Zr1353   2.463       .  S
O1339      C1340   1.288       .  A
C1340      C1524   1.513       .  S
O1341     Zr1350   2.402       .  S
O1341      C1343   1.278       .  A
O1342     Zr1354   2.502       .  S
O1342      C1343   1.297       .  A
C1343      C1497   1.483       .  S
O1344     Zr1347   2.488       .  S
O1344      C1346   1.298       .  A
O1345     Zr1353   2.334       .  S
O1345      C1346   1.275       .  A
C1346      C1428   1.448       .  S
Zr1347     O1348   2.435       .  S
Zr1347     O1349   2.435       .  S
Zr1347     O1355   2.313       .  S
Zr1347     O1356   2.416       .  S
Zr1347     O1359   2.392       .  S
Zr1347     O1357   2.334       .  S
O1348      H1368   0.990       .  S
O1348      H1373   0.990       .  S
O1349      H1369   0.990       .  S
Zr1350     O1351   2.433       .  S
Zr1350     O1352   2.436       .  S
Zr1350     O1356   2.378       .  S
Zr1350     O1355   2.359       .  S
Zr1350     O1360   2.393       .  S
Zr1350     O1358   2.341       .  S
O1351      H1367   0.990       .  S
O1352      H1366   0.990       .  S
O1352      H1376   0.990       .  S
Zr1353     O1356   2.392       .  S
Zr1353     O1358   2.390       .  S
Zr1353     O1359   2.406       .  S
Zr1354     O1355   2.356       .  S
Zr1354     O1357   2.347       .  S
Zr1354     O1360   2.381       .  S
O1355      H1363   0.957       .  S
O1358      H1362   0.964       .  S
O1359      H1364   0.964       .  S
C1377      C1378   1.420       .  A
C1377      C1382   1.408       .  A
C1378      C1379   1.413       .  A
C1378      H1387   1.076       .  S
C1379      C1380   1.405       .  A
C1379      S1383   1.795       .  S
C1380      C1381   1.420       .  A
C1381      C1382   1.411       .  A
C1381      H1388   1.076       .  S
C1382      S1384   1.802       .  S
S1383      H1386   1.406       .  S
S1384      H1385   1.406       .  S
C1389      C1390   1.427       .  A
C1389      C1394   1.403       .  A
C1390      C1391   1.403       .  A
C1390      H1399   1.083       .  S
C1391      C1392   1.402       .  A
C1391      S1395   1.801       .  S
C1392      C1393   1.426       .  A
C1393      C1394   1.410       .  A
C1393      H1400   1.078       .  S
C1394      S1396   1.802       .  S
S1395      H1398   1.404       .  S
S1396      H1397   1.405       .  S
C1401      C1402   1.406   1_655  A
C1401      C1406   1.414   1_655  A
C1402      C3163   1.405   1_545  A
C1402      H1411   1.084   1_455  S
C1403      C3162   1.405       .  A
C1403      C1404   1.414       .  A
C1403      S1407   1.804       .  S
C1404      C1405   1.406       .  A
C1405      C3166   1.410       .  A
C1405      H1412   1.084       .  S
C1406      C3165   1.410   1_545  A
C1406      S1408   1.802       .  S
S1407      H1410   1.406       .  S
S1408      H1409   1.406   1_455  S
C1413      C1414   1.401       .  A
C1413      C1418   1.410       .  A
C1414      C1415   1.390       .  A
C1414      H1423   1.085       .  S
C1415      C1416   1.408       .  A
C1415      S1419   1.804       .  S
C1416      C1417   1.401       .  A
C1417      C1418   1.393       .  A
C1417      H1424   1.085       .  S
C1418      S1420   1.803       .  S
S1419      H1422   1.406       .  S
S1420      H1421   1.406       .  S
C1425      C1426   1.401       .  A
C1425      C1430   1.409       .  A
C1426      C1427   1.396       .  A
C1426      H1435   1.083       .  S
C1427      C1428   1.412       .  A
C1427      S1431   1.807       .  S
C1428      C1429   1.399       .  A
C1429      C1430   1.392       .  A
C1429      H1436   1.085       .  S
C1430      S1432   1.800       .  S
S1431      H1434   1.407       .  S
S1432      H1433   1.407       .  S
C1437      C1438   1.415       .  A
C1437      C1442   1.415       .  A
C1438      C1439   1.410       .  A
C1438      H1447   1.079       .  S
C1439      C1440   1.412       .  A
C1439      S1443   1.803       .  S
C1440      C1441   1.416       .  A
C1441      C1442   1.416       .  A
C1441      H1448   1.084       .  S
C1442      S1444   1.801       .  S
S1443      H1446   1.406       .  S
S1444      H1445   1.407       .  S
C1449      C1450   1.430       .  A
C1449      C1454   1.407       .  A
C1450      C1451   1.431       .  A
C1450      H1459   1.083       .  S
C1451      C1452   1.417       .  A
C1451      S1455   1.797       .  S
C1452      C1453   1.438       .  A
C1453      C1454   1.420       .  A
C1453      H1460   1.082       .  S
C1454      S1456   1.801       .  S
S1455      H1458   1.405       .  S
S1456      H1457   1.406       .  S
C1461      C1462   1.418       .  A
C1461      C1466   1.400       .  A
C1462      C1463   1.425       .  A
C1462      H1471   1.083       .  S
C1463      C1464   1.415       .  A
C1463      S1467   1.798       .  S
C1464      C1465   1.411       .  A
C1465      C1466   1.386       .  A
C1465      H1472   1.071       .  S
C1466      S1468   1.803       .  S
S1467      H1470   1.405       .  S
S1468      H1469   1.406       .  S
C1473      C1474   1.405       .  A
C1473      C1478   1.405   1_655  A
C1474      C1475   1.404       .  A
C1474      H1483   1.065       .  S
C1475      C1476   1.410   1_655  A
C1475      S1479   1.801       .  S
C1476      C1477   1.410       .  A
C1477      C1478   1.403       .  A
C1477      H1484   1.077       .  S
C1478      S1480   1.799       .  S
S1479      H1482   1.399       .  S
S1480      H1481   1.407       .  S
C1485      C1486   1.410       .  A
C1485      C1490   1.399       .  A
C1486      C1487   1.399       .  A
C1486      H1495   1.084   1_655  S
C1487      C1488   1.402       .  A
C1487      S1491   1.801       .  S
C1488      C1489   1.410       .  A
C1489      C1490   1.396       .  A
C1489      H1496   1.074       .  S
C1490      S1492   1.803       .  S
S1491      H1494   1.407       .  S
S1492      H1493   1.404       .  S
C1497      C1498   1.392       .  A
C1497      C1502   1.427       .  A
C1498      C1499   1.400       .  A
C1498      H1507   1.083       .  S
C1499      C1500   1.423       .  A
C1499      S1503   1.805       .  S
C1500      C1501   1.394       .  A
C1501      C1502   1.410       .  A
C1501      H1508   1.082       .  S
C1502      S1504   1.799       .  S
S1503      H1506   1.407       .  S
S1504      H1505   1.407       .  S
C1509      C1510   1.410       .  A
C1509      C1514   1.401       .  A
C1510      C1511   1.401       .  A
C1510      H1519   1.084       .  S
C1511      C1512   1.405       .  A
C1511      S1515   1.798       .  S
C1512      C1513   1.413       .  A
C1513      C1514   1.395       .  A
C1513      H1520   1.080       .  S
C1514      S1516   1.803       .  S
S1515      H1518   1.405       .  S
S1516      H1517   1.405       .  S
C1521      C1522   1.400       .  A
C1521      C1526   1.409       .  A
C1522      C1523   1.402       .  A
C1522      H1531   1.075       .  S
C1523      C1524   1.421       .  A
C1523      S1527   1.808       .  S
C1524      C1525   1.418       .  A
C1525      C1526   1.415       .  A
C1525      H1532   1.082       .  S
C1526      S1528   1.796       .  S
S1527      H1530   1.407       .  S
S1528      H1529   1.406       .  S
C1533      C1534   1.403       .  A
C1533      C1538   1.429       .  A
C1534      C1535   1.410       .  A
C1534      H1543   1.082       .  S
C1535      C1536   1.417       .  A
C1535      S1539   1.795       .  S
C1536      C1537   1.396       .  A
C1537      C1538   1.394       .  A
C1537      H1544   1.084       .  S
C1538      S1540   1.815       .  S
S1539      H1542   1.407       .  S
S1540      H1541   1.407       .  S
C1545      C1546   1.393       .  A
C1545      C1550   1.433       .  A
C1546      C1547   1.393       .  A
C1546      H1555   1.084       .  S
C1547      C1548   1.411       .  A
C1547      S1551   1.774       .  S
C1548      C1549   1.393       .  A
C1549      C1550   1.394       .  A
C1549      H1556   1.084       .  S
C1550      S1552   1.814       .  S
S1551      H1554   1.401       .  S
S1552      H1553   1.407       .  S
C1557      C1558   1.414       .  A
C1557      C1562   1.404       .  A
C1558      C1559   1.403       .  A
C1558      H1567   1.072       .  S
C1559      C1560   1.401       .  A
C1559      S1563   1.799       .  S
C1560      C1561   1.414       .  A
C1561      C1562   1.402       .  A
C1561      H1568   1.084       .  S
C1562      S1564   1.801       .  S
S1563      H1566   1.406       .  S
S1564      H1565   1.407       .  S
C1569      C1570   1.403       .  A
C1569      C1574   1.411       .  A
C1570      C1571   1.401       .  A
C1570      H1579   1.083       .  S
C1571      C1572   1.407       .  A
C1571      S1575   1.803       .  S
C1572      C1573   1.387       .  A
C1573      C1574   1.371       .  A
S1575      H1578   1.406       .  S
S1576      H1577   1.408       .  S
C1581      C1582   1.389       .  A
C1582      C1583   1.390       .  A
C1582      H1591   1.084       .  S
C1583      C1584   1.421       .  A
C1583      S1587   1.810       .  S
C1585      C1586   1.397       .  A
C1585      H1592   1.083       .  S
C1586      S1588   1.807       .  S
S1587      H1590   1.407       .  S
S1588      H1589   1.407       .  S
C1593      C1594   1.402       .  A
C1593      C1598   1.432       .  A
C1594      C1595   1.407       .  A
C1594      H1603   1.082       .  S
C1595      C1596   1.425       .  A
C1595      S1599   1.802       .  S
C1596      C1597   1.402       .  A
C1597      C1598   1.418       .  A
C1597      H1604   1.084       .  S
C1598      S1600   1.798       .  S
S1599      H1602   1.408       .  S
S1600      H1601   1.396       .  S
C1605      C1606   1.411       .  A
C1605      C1610   1.407       .  A
C1606      C1607   1.411       .  A
C1606      H1615   1.084       .  S
C1607      C1608   1.413       .  A
C1607      S1611   1.794       .  S
C1608      C1609   1.409       .  A
C1609      C1610   1.395       .  A
C1609      H1616   1.085       .  S
C1610      S1612   1.797       .  S
S1611      H3374   1.404       .  S
S1612      H1613   1.405       .  S
H1614      S3371   1.404       .  S
C1617      C1618   1.415       .  A
C1617      C1622   1.416       .  A
C1618      C1619   1.404       .  A
C1618      H1627   1.083       .  S
C1619      C1620   1.411       .  A
C1619      S1623   1.802       .  S
C1620      C1621   1.421       .  A
C1621      C1622   1.425       .  A
C1621      H1628   1.083       .  S
C1622      S1624   1.799       .  S
S1623      H1626   1.406       .  S
S1624      H1625   1.405       .  S
C1629      C1630   1.405       .  A
C1629      C1634   1.427       .  A
C1630      C1631   1.413       .  A
C1630      H1639   1.083       .  S
C1631      C1632   1.418       .  A
C1631      S1635   1.803       .  S
C1632      C1633   1.391       .  A
C1633      C1634   1.395       .  A
C1633      H1640   1.084       .  S
C1634      S1636   1.815       .  S
S1635      H1638   1.406       .  S
S1636      H1637   1.407       .  S
C1641      C2728   1.504       .  S
C1641      C1642   1.407       .  A
C1641      C1646   1.423       .  A
C1642      C1643   1.397       .  A
C1642      H2531   1.083       .  S
C1643      C1644   1.417       .  A
C1644      C1645   1.406       .  A
C1645      C1646   1.411       .  A
C1645      H1652   1.084       .  S
C1646      S1648   1.799       .  S
S1647      H1650   1.407       .  S
S1648      H1649   1.408       .  S
H1651      C2522   1.083   1_556  S
C1653      C1654   1.410       .  A
C1653      C1658   1.413       .  A
C1654      C1655   1.406       .  A
C1654      H1663   1.084       .  S
C1655      C1656   1.414       .  A
C1655      S1659   1.804       .  S
C1656      C1657   1.411       .  A
C1657      C1658   1.410       .  A
S1659      H1662   1.407       .  S
S1660      H1661   1.406       .  S
C1665      C1666   1.407       .  A
C1665      C1670   1.402       .  A
C1666      C1667   1.397       .  A
C1666      H1675   1.084       .  S
C1667      C1668   1.405       .  A
C1667      S1671   1.805       .  S
C1668      C1669   1.406       .  A
C1669      C1670   1.385       .  A
C1669      H1676   1.084       .  S
C1670      S1672   1.803       .  S
S1671      H1674   1.403       .  S
S1672      H1673   1.399       .  S
C1677      C1678   1.311       .  A
C1677      C1682   1.399       .  A
C1678      C1679   1.368       .  A
C1678      H1687   1.033       .  S
C1679      C1680   1.389       .  A
C1679      S1683   2.237       .  S
C1680      C1681   1.434       .  A
C1681      C1682   1.430       .  A
C1681      H1688   1.081       .  S
C1682      S1684   1.773       .  S
S1683      H1686   1.241       .  S
S1684      H1685   1.408       .  S
C1689      C1690   1.390       .  A
C1689      C1694   1.406       .  A
C1690      C1691   1.388       .  A
C1690      H1699   1.084       .  S
C1691      C1692   1.426       .  A
C1691      S1695   1.812       .  S
C1692      C1693   1.404       .  A
C1693      C1694   1.389       .  A
C1693      H1700   1.084       .  S
C1694      S1696   1.804       .  S
S1695      H1698   1.407       .  S
S1696      H1697   1.401       .  S
C1701      C1702   1.413       .  A
C1701      C1706   1.414       .  A
C1702      C1703   1.390       .  A
C1702      H1711   1.070       .  S
C1703      C1704   1.396       .  A
C1703      S1707   1.810       .  S
C1704      C1705   1.415       .  A
C1705      C1706   1.420       .  A
C1705      H1712   1.082       .  S
C1706      S1708   1.799       .  S
S1707      H1710   1.399       .  S
S1708      H1709   1.404       .  S
C1713      C3474   1.416       .  A
C1714      C3473   1.416       .  A
C1714      C1715   1.405   1_665  A
C1714      H1723   1.083       .  S
C1715      C1716   1.415       .  A
C1715      S1719   1.803       .  S
C1717      C3478   1.408       .  A
C1717      H3484   1.083   1_564  S
C1718      C3477   1.408       .  A
C1718      S1720   1.800   1_554  S
S1719      H1722   1.408       .  S
S1720      H1721   1.408   1_455  S
H1724      C3477   1.083   1_556  S
C1725      C1726   1.398       .  A
C1725      C1730   1.417       .  A
C1726      C1727   1.402       .  A
C1726      H1735   1.083       .  S
C1727      C1728   1.411       .  A
C1727      S1731   1.796       .  S
C1728      C1729   1.396       .  A
C1729      C1730   1.397       .  A
S1731      H1734   1.407       .  S
S1732      H1733   1.405       .  S
C1737      C1742   1.410   1_554  A
C1738      C1739   1.405       .  A
C1738      H1747   1.084       .  S
C1739      C1740   1.417       .  A
C1739      S1743   1.801       .  S
C1741      C1742   1.395       .  A
C1741      H1748   1.085       .  S
C1742      S1744   1.796       .  S
S1743      H1746   1.399       .  S
S1744      H1745   1.403       .  S
C1749      C1750   1.409   1_554  A
C1750      C1751   1.396       .  A
C1750      H1759   1.083       .  S
C1751      C1752   1.411   1_556  A
C1751      S1755   1.805       .  S
C1753      C1754   1.402       .  A
C1753      H1760   1.083       .  S
C1754      S1756   1.810       .  S
S1755      H1758   1.408       .  S
S1756      H1757   1.407       .  S
O1761     Zr1773   2.463       .  S
O1761      C2643   1.293       .  A
O1762     Zr1799   2.388       .  S
O1762      C1763   1.281       .  A
C1763      O2641   1.293       .  A
C1763      C2632   1.474       .  S
O1764     Zr1776   2.540       .  S
O1764      C1766   1.290       .  A
O1765     Zr1800   2.539       .  S
O1765      C1766   1.275       .  A
C1766      C2560   1.370       .  S
O1767     Zr1776   2.454       .  S
O1767      C2649   1.289       .  A
O1768     Zr1799   2.420       .  S
O1768      C1769   1.283       .  A
C1769      O2647   1.289       .  A
C1769      C2617   1.477       .  S
O1770     Zr1773   2.719       .  S
O1770      C1772   1.337       .  A
O1771     Zr1800   2.549       .  S
O1771      C1772   1.285       .  A
C1772      C2557   1.484       .  S
Zr1773     O1774   2.435       .  S
Zr1773     O1775   2.443       .  S
Zr1773     O1779   2.569       .  S
Zr1773     O1780   2.340       .  S
Zr1773     O1803   2.456       .  S
Zr1773     O2685   2.395       .  S
O1774      H1817   0.990       .  S
O1775      H1816   0.990       .  S
O1775      H1820   0.990       .  S
Zr1776     O1777   2.440       .  S
Zr1776     O1778   2.436       .  S
Zr1776     O1780   2.478       .  S
Zr1776     O1779   2.564       .  S
Zr1776     O2684   2.408       .  S
Zr1776     O1806   2.615       .  S
O1777      H1818   0.990       .  S
O1777      H1821   0.990       .  S
O1778      H1811   0.990       .  S
O1779     Zr2679   2.423       .  S
O1780     Zr1800   3.587       .  S
O1780      H1807   0.974       .  S
O1781     Zr1793   2.424   1_655  S
O1781      C2663   1.284       .  A
O1782     Zr1800   2.447   1_655  S
O1782      C1783   1.289       .  A
C1783      O2661   1.284       .  A
C1783      C2605   1.474       .  S
O1784     Zr1796   2.451       .  S
O1784      C1786   1.291       .  A
O1785     Zr1799   2.370       .  S
O1785      C1786   1.274       .  A
C1786      C2572   1.472       .  S
O1787     Zr1796   2.449       .  S
O1787      C2669   1.290       .  A
O1788     Zr1800   2.478       .  S
O1788      C1789   1.296       .  A
C1789      O2667   1.290       .  A
C1789      C2596   1.509       .  S
O1790     Zr1793   2.397       .  S
O1790      C1792   1.279       .  A
O1791     Zr1799   2.429       .  S
O1791      C1792   1.283       .  A
C1792      C2548   1.457       .  S
Zr1793     O1794   2.440   1_455  S
Zr1793     O1795   2.436   1_455  S
Zr1793     O1801   2.379       .  S
Zr1793     O1802   2.384       .  S
Zr1793     O1805   2.371       .  S
Zr1793     O2683   2.354       .  S
O1794      H1814   0.990       .  S
O1794      H1819   0.990       .  S
O1795      H1815   0.990       .  S
Zr1796     O1797   2.434       .  S
Zr1796     O1798   2.433       .  S
Zr1796     O1802   2.414       .  S
Zr1796     O1801   2.461       .  S
Zr1796     O2686   2.427       .  S
Zr1796     O1804   2.447       .  S
O1797      H1813   0.990       .  S
O1798      H2692   0.990       .  S
O1798      H1822   0.990       .  S
Zr1799     O2659   2.423       .  S
Zr1799     O1802   2.401       .  S
Zr1799     O1804   2.425       .  S
Zr1799     O1805   2.404       .  S
Zr1800     O2681   2.463       .  S
Zr1800     O1803   2.463       .  S
Zr1800     O1806   2.688       .  S
O1801     Zr2680   2.463       .  S
O1801      H1809   0.960       .  S
O1803     Zr2673   2.354       .  S
O1804     Zr2656   2.408       .  S
O1804      H1808   0.966       .  S
O1805     Zr2653   2.395       .  S
O1805      H1810   0.966       .  S
O1806     Zr2676   2.427       .  S
H1812      O2678   0.990       .  S
O1823     Zr1835   2.485       .  S
O1823      C1825   1.297       .  A
O1824     Zr1861   2.404   1_556  S
O1824      C1825   1.287   1_556  A
C1825      C2620   1.478       .  S
O1826     Zr1838   2.341       .  S
O1826      C1828   1.269       .  A
O1827     Zr2742   2.551       .  S
O1827      C1828   1.308       .  A
C1828      C2497   1.513       .  S
O1829     Zr1838   2.386       .  S
O1829      C1831   1.276       .  A
O1830     Zr2741   2.533       .  S
O1830      C1831   1.307       .  A
C1831      C2476   1.511       .  S
O1832     Zr1835   2.518       .  S
O1832      C1834   1.303       .  A
O1833     Zr1862   2.392       .  S
O1833      C1834   1.282       .  A
C1834      C2533   1.496       .  S
Zr1835     O2716   2.434   1_554  S
Zr1835     O1837   2.436       .  S
Zr1835     O1841   2.397   1_554  S
Zr1835     O1842   2.365   1_554  S
Zr1835     O1865   2.374       .  S
Zr1835     O1867   2.387       .  S
O1836     Zr2715   2.434       .  S
O1836      H1879   0.990       .  S
O1837      H1878   0.989       .  S
O1837      H1882   0.990       .  S
Zr1838     O1839   2.435       .  S
Zr1838     O1840   2.435       .  S
Zr1838     O2722   2.368       .  S
Zr1838     O2721   2.351       .  S
Zr1838     O2746   2.360       .  S
Zr1838     O2748   2.374       .  S
O1839      H1880   0.990       .  S
O1839      H1883   0.990       .  S
O1840      H1873   0.990       .  S
O1841     Zr2718   2.351       .  S
O1841     Zr1861   2.387   1_556  S
O1842     Zr2718   2.368       .  S
O1842     Zr1862   2.388   1_556  S
O1842      H2749   0.965       .  S
O1843     Zr1855   2.373       .  S
O1843      C1845   1.272       .  A
O1844     Zr1862   2.514       .  S
O1844      C1845   1.302       .  A
C1845      C2509   1.492       .  S
O1846     Zr1858   2.481       .  S
O1846      C1848   1.296       .  A
O1847     Zr1861   2.419       .  S
O1847      C1848   1.290       .  A
O1849     Zr1858   2.468       .  S
O1849      C1851   1.291       .  A
O1850     Zr1862   2.400       .  S
O1850      C1851   1.284       .  A
C1851      C2608   1.467       .  S
O1852     Zr1855   2.410       .  S
O1852      C1854   1.272       .  A
O1853     Zr1861   2.484       .  S
O1853      C1854   1.292       .  A
C1854      C2485   1.481       .  S
Zr1855     O1856   2.444       .  S
Zr1855     O1857   2.434       .  S
Zr1855     O1863   2.380       .  S
Zr1855     O1864   2.355       .  S
Zr1855     O1867   2.346       .  S
Zr1855     O1865   2.361       .  S
O1856      H1876   0.989       .  S
O1856      H1881   0.990       .  S
O1857      H1877   0.990       .  S
Zr1858     O1859   2.433       .  S
Zr1858     O2740   2.433   1_554  S
Zr1858     O1864   2.350       .  S
Zr1858     O1863   2.378       .  S
Zr1858     O1868   2.382   1_554  S
Zr1858     O1866   2.382   1_554  S
O1859      H1875   0.990       .  S
O1860     Zr2738   2.433       .  S
O1860      H1874   0.990       .  S
O1860      H2764   0.990       .  S
Zr1861     O2710   2.533   1_554  S
Zr1861     O1864   2.378       .  S
Zr1861     O1866   2.381   1_554  S
Zr1861     O1867   2.418       .  S
Zr1862     O2707   2.551   1_554  S
Zr1862     O1863   2.401       .  S
Zr1862     O1865   2.401       .  S
Zr1862     O1868   2.391   1_554  S
O1863      H1871   0.965       .  S
O1866     Zr2718   2.360       .  S
O1866      H2750   0.966       .  S
O1867      H1872   0.964       .  S
O1868     Zr2718   2.374       .  S
H1869      O2722   0.965       .  S
H1870      O2746   0.966       .  S
H1884      O2740   0.990       .  S
O1885     Zr1897   2.460       .  S
O1885      C2767   1.290       .  A
O1886     Zr1923   2.407       .  S
O1886      C1887   1.286       .  A
C1887      O2765   1.290       .  A
C1887      C2629   1.493       .  S
O1888     Zr1900   2.435       .  S
O1888      C1890   1.284       .  A
O1889     Zr1924   2.483       .  S
O1889      C1890   1.294       .  A
C1890      C2437   1.486       .  S
O1891     Zr1900   2.422       .  S
O1891      C2773   1.285   1_554  A
O1892     Zr1923   2.412       .  S
O1892      C1893   1.284       .  A
C1893      O2771   1.285       .  A
C1893      C2461   1.450       .  S
O1894     Zr1897   2.509       .  S
O1894      C1896   1.294       .  A
O1895     Zr1924   2.387       .  S
O1895      C1896   1.262       .  A
C1896      C2413   1.497       .  S
Zr1897     O1898   2.435       .  S
Zr1897     O1899   2.437       .  S
Zr1897     O1903   2.380       .  S
Zr1897     O1904   2.355       .  S
Zr1897     O1927   2.353       .  S
Zr1897     O2809   2.375       .  S
O1898      H1941   0.990       .  S
O1899      H1940   0.990       .  S
O1899      H1944   0.990       .  S
Zr1900     O1901   2.436       .  S
Zr1900     O1902   2.434       .  S
Zr1900     O1904   2.344       .  S
Zr1900     O1903   2.367       .  S
Zr1900     O2808   2.350       .  S
Zr1900     O1930   2.381       .  S
O1901      H1942   0.990       .  S
O1901      H1945   0.990       .  S
O1902      H1935   0.990       .  S
O1903     Zr2803   2.382   1_554  S
O1904     Zr1924   2.392       .  S
O1904      H1931   0.954       .  S
O1905     Zr2797   2.389   1_554  S
O1905      C1907   1.277       .  A
O1906     Zr1924   2.438       .  S
O1906      C1907   1.287       .  A
C1907      C2449   1.452       .  S
O1908     Zr1920   2.500       .  S
O1908      C1910   1.295       .  A
O1909     Zr1923   2.354       .  S
O1909      C1910   1.256       .  A
C1910      C2425   1.477       .  S
O1911     Zr2800   2.436   1_554  S
O1911      C1913   1.288       .  A
O1912     Zr1924   2.458       .  S
O1912      C1913   1.295       .  A
C1913      C2524   1.493       .  S
O1914     Zr1917   2.416       .  S
O1914      C1916   1.271       .  A
O1915     Zr1923   2.502       .  S
O1915      C1916   1.288       .  A
C1916      C2401   1.507       .  S
Zr1917     O2785   2.389       .  S
Zr1917     O1918   2.444       .  S
Zr1917     O1919   2.435       .  S
Zr1917     O2805   2.381       .  S
Zr1917     O1926   2.353       .  S
Zr1917     O1929   2.392       .  S
Zr1917     O2807   2.352       .  S
O1918      H1938   0.990       .  S
O1918      H1943   0.989       .  S
O1919      H2819   0.990       .  S
Zr1920     O2791   2.436       .  S
Zr1920     O1921   2.434       .  S
Zr1920     O1922   2.435       .  S
Zr1920     O1926   2.361       .  S
Zr1920     O2805   2.370       .  S
Zr1920     O2810   2.399       .  S
Zr1920     O1928   2.336       .  S
O1921      H1937   0.990       .  S
O1922      H2816   0.990       .  S
O1922      H1946   0.990       .  S
Zr1923     O2783   2.382       .  S
Zr1923     O1926   2.381       .  S
Zr1923     O1928   2.403       .  S
Zr1923     O1929   2.391       .  S
Zr1924     O1925   2.384       .  S
Zr1924     O1927   2.393       .  S
Zr1924     O1930   2.388       .  S
O1925     Zr2797   2.381   1_554  S
O1925     Zr2800   2.370   1_554  S
O1925      H2813   0.963       .  S
O1927     Zr2797   2.352   1_554  S
O1928     Zr2780   2.350       .  S
O1928      H1932   0.963       .  S
O1929     Zr2777   2.375       .  S
O1929      H1934   0.966       .  S
O1930     Zr2800   2.399   1_554  S
H1933      O2805   0.963       .  S
H1936      O2802   0.990   1_554  S
H1939      O2799   0.990       .  S
O1947     Zr1959   2.433       .  S
O1947      C2829   1.287       .  A
O1948     Zr1985   2.470       .  S
O1948      C1949   1.296       .  A
C1949      O2827   1.287       .  A
C1949      C3473   1.515       .  S
O1950     Zr1962   2.439       .  S
O1950      C1952   1.286       .  A
O1951     Zr1986   2.440       .  S
O1951      C1952   1.286       .  A
C1952      C2368   1.470       .  S
O1953     Zr1962   2.386   1_455  S
O1953      C2835   1.279   1_554  A
O1954     Zr1985   2.456   1_455  S
O1954      C1955   1.291       .  A
C1955      O2833   1.279       .  A
C1955      C2464   1.457       .  S
O1956     Zr1959   2.481       .  S
O1956      C1958   1.289       .  A
O1957     Zr1986   2.391       .  S
O1957      C1958   1.267       .  A
C1958      C2392   1.482       .  S
Zr1959     O1960   2.434       .  S
Zr1959     O1961   2.433       .  S
Zr1959     O1965   2.389       .  S
Zr1959     O1966   2.362       .  S
Zr1959     O1989   2.364       .  S
Zr1959     O2871   2.387       .  S
O1960      H2003   0.990       .  S
O1961      H2002   0.990       .  S
O1961      H2006   0.990       .  S
Zr1962     O1963   2.435   1_655  S
Zr1962     O1964   2.435   1_655  S
Zr1962     O1966   2.338       .  S
Zr1962     O1965   2.383       .  S
Zr1962     O1990   2.374       .  S
Zr1962     O1992   2.379       .  S
O1963      H2004   0.990       .  S
O1963      H2007   0.990       .  S
O1964      H1997   0.990       .  S
O1965     Zr2865   2.388   1_554  S
O1966     Zr1986   2.384       .  S
O1966      H1993   0.957       .  S
O1967     Zr2859   2.436       .  S
O1967      C1969   1.288       .  A
O1968     Zr1986   2.354       .  S
O1968      C1969   1.273       .  A
C1969      C2452   1.433       .  S
O1970     Zr1982   2.545       .  S
O1970      C1972   1.308       .  A
O1971     Zr1985   2.356       .  S
O1971      C1972   1.277       .  A
C1972      C2353   1.483       .  S
O1973     Zr2862   2.478   1_554  S
O1973      C1975   1.294       .  A
O1974     Zr1986   2.446       .  S
O1974      C1975   1.291       .  A
C1975      C2536   1.497       .  S
O1976     Zr1979   2.375       .  S
O1976      C1978   1.274       .  A
O1977     Zr1985   2.526       .  S
O1977      C1978   1.304       .  A
C1978      C2380   1.483       .  S
Zr1979     O2847   2.436       .  S
Zr1979     O1980   2.439       .  S
Zr1979     O1981   2.435       .  S
Zr1979     O2867   2.367       .  S
Zr1979     O1988   2.363       .  S
Zr1979     O1991   2.378       .  S
Zr1979     O2869   2.321       .  S
O1980      H2000   0.990       .  S
O1980      H2005   0.990       .  S
O1981      H2881   0.990       .  S
Zr1982     O2853   2.478       .  S
Zr1982     O1983   2.445       .  S
Zr1982     O2864   2.434       .  S
Zr1982     O1988   2.357       .  S
Zr1982     O2867   2.401       .  S
Zr1982     O2872   2.389       .  S
Zr1982     O2870   2.338       .  S
O1983      H1999   0.989       .  S
O1984     Zr2862   2.434   1_554  S
O1984      H1998   0.990       .  S
O1984      H2888   0.990   1_554  S
Zr1985     O2845   2.388       .  S
Zr1985     O1988   2.354       .  S
Zr1985     O2870   2.399       .  S
Zr1985     O1991   2.399       .  S
Zr1986     O1987   2.391       .  S
Zr1986     O1989   2.394       .  S
Zr1986     O1992   2.378       .  S
O1987     Zr2859   2.367       .  S
O1987     Zr2862   2.401   1_554  S
O1987      H1995   0.964       .  S
O1989     Zr2859   2.321       .  S
O1990     Zr2862   2.338   1_554  S
O1990     Zr2865   2.399   1_554  S
O1990      H2874   0.963   1_554  S
O1991     Zr2839   2.387       .  S
O1991      H1996   0.966       .  S
O1992     Zr2862   2.389   1_554  S
H1994      O2870   0.963       .  S
H2001      O2861   0.990       .  S
H2008      O2864   0.990       .  S
O2009     Zr2021   2.524       .  S
O2009      C2011   1.280       .  A
O2010     Zr2047   2.371       .  S
O2010      C2011   1.248       .  A
C2011      C2581   1.502       .  S
O2012      C2014   1.289       .  A
O2013     Zr2048   2.374       .  S
C2014      C2305   1.458   1_545  S
O2015     Zr2024   2.468       .  S
O2015      C2017   1.291       .  A
O2016     Zr2047   2.458       .  S
O2016      C2017   1.297       .  A
C2017      C2341   1.495       .  S
O2018     Zr2021   2.378       .  S
O2018      C2020   1.278       .  A
O2019     Zr2048   2.503       .  S
O2019      C2020   1.301       .  A
C2020      C2488   1.490       .  S
Zr2021     O2022   2.434       .  S
Zr2021     O2023   2.434       .  S
Zr2021     O2027   2.356       .  S
Zr2021     O2028   2.414       .  S
Zr2021     O2051   2.415       .  S
Zr2021     O2053   2.345       .  S
O2022      H2065   0.990       .  S
O2023      H2064   0.990       .  S
O2023      H2068   0.990       .  S
Zr2024     O2028   2.381       .  S
Zr2024     O2027   2.362       .  S
Zr2024     O2052   2.386       .  S
Zr2024     O2054   2.365       .  S
O2025      H2066   0.990       .  S
O2025      H2069   0.990   1_545  S
O2026      H2059   0.990       .  S
O2027     Zr2047   2.356       .  S
O2028     Zr2048   2.402       .  S
O2028      H2055   0.966       .  S
O2029     Zr2041   2.630       .  S
O2029      C2031   1.327       .  A
O2030     Zr2048   2.362       .  S
O2030      C2031   1.276       .  A
C2031      C2329   1.539       .  S
O2032     Zr2044   2.421       .  S
O2032      C2034   1.280       .  A
O2033     Zr2047   2.380       .  S
O2033      C2034   1.277       .  A
C2034      C2569   1.444       .  S
O2035     Zr2044   2.377       .  S
O2035      C2037   1.264       .  A
O2036     Zr2048   2.533       .  S
O2036      C2037   1.298       .  A
C2037      C2473   1.517       .  S
O2038     Zr2041   2.538       .  S
O2038      C2040   1.309       .  A
O2039     Zr2047   2.455       .  S
O2039      C2040   1.291       .  A
C2040      C2317   1.515       .  S
Zr2041     O2042   2.434       .  S
Zr2041     O2043   2.434       .  S
Zr2041     O2049   2.343       .  S
Zr2041     O2050   2.422       .  S
Zr2041     O2053   2.405       .  S
Zr2041     O2051   2.377       .  S
O2042      H2062   0.990       .  S
O2042      H2067   0.990       .  S
O2043      H2063   0.990       .  S
Zr2044     O2045   2.435       .  S
Zr2044     O2046   2.437       .  S
Zr2044     O2050   2.352       .  S
Zr2044     O2049   2.384       .  S
Zr2044     O2054   2.385       .  S
Zr2044     O2052   2.356       .  S
O2045      H2061   0.990       .  S
O2046      H2060   0.990       .  S
O2046      H2070   0.990       .  S
Zr2047     O2050   2.386       .  S
Zr2047     O2052   2.364       .  S
Zr2047     O2053   2.406       .  S
Zr2048     O2049   2.403       .  S
Zr2048     O2051   2.397       .  S
Zr2048     O2054   2.392       .  S
O2049      H2057   0.961       .  S
O2052      H2056   0.964       .  S
O2053      H2058   0.962       .  S
O2071     Zr2083   2.536       .  S
O2071      C2073   1.282   1_655  A
O2072     Zr2109   2.353   1_455  S
O2072      C2073   1.248       .  A
C2073      C2344   1.506       .  S
O2074     Zr2086   2.456       .  S
O2074      C2076   1.288       .  A
O2075     Zr2110   2.326       .  S
O2075      C2076   1.269       .  A
C2076      C2296   1.439       .  S
O2077     Zr2086   2.455   1_455  S
O2077      C2079   1.288       .  A
O2078     Zr2109   2.448   1_455  S
O2078      C2079   1.295       .  A
C2079      C2584   1.488       .  S
O2080     Zr2083   2.408       .  S
O2080      C2082   1.281       .  A
O2081     Zr2110   2.478       .  S
O2081      C2082   1.297       .  A
C2082      C2512   1.472       .  S
Zr2083     O2084   2.431       .  S
Zr2083     O2085   2.434       .  S
Zr2083     O2089   2.371       .  S
Zr2083     O2090   2.417       .  S
Zr2083     O2113   2.407       .  S
Zr2083     O2115   2.352       .  S
O2084      H2127   0.990       .  S
O2085      H2126   0.990       .  S
O2085      H2130   0.990       .  S
Zr2086     O2087   2.438       .  S
Zr2086     O2088   2.435       .  S
Zr2086     O2090   2.361       .  S
Zr2086     O2089   2.371       .  S
Zr2086     O2114   2.374       .  S
Zr2086     O2116   2.377       .  S
O2087      H2128   0.990       .  S
O2087      H2131   0.990       .  S
O2088      H2121   0.990       .  S
O2089     Zr2109   2.364       .  S
O2090     Zr2110   2.390       .  S
O2090      H2117   0.964       .  S
O2091     Zr2103   2.649       .  S
O2091      C2093   1.329       .  A
O2092     Zr2110   2.329       .  S
O2092      C2093   1.268       .  A
C2093      C2332   1.560       .  S
O2094     Zr2106   2.440       .  S
O2094      C2096   1.286   1_655  A
O2095     Zr2109   2.386   1_455  S
O2095      C2096   1.277       .  A
C2096      C2545   1.454       .  S
O2097     Zr2106   2.389       .  S
O2097      C2099   1.265       .  A
O2098     Zr2110   2.533       .  S
O2098      C2099   1.298       .  A
C2099      C2500   1.517       .  S
O2100     Zr2103   2.519       .  S
O2100      C2102   1.304       .  A
O2101     Zr2109   2.428       .  S
O2101      C2102   1.283       .  A
C2102      C2281   1.486       .  S
Zr2103     O2104   2.435       .  S
Zr2103     O2105   2.433       .  S
Zr2103     O2111   2.331       .  S
Zr2103     O2112   2.439       .  S
Zr2103     O2115   2.403       .  S
Zr2103     O2113   2.366       .  S
O2104      H2124   0.990       .  S
O2104      H2129   0.990       .  S
O2105      H2125   0.990       .  S
Zr2106     O2107   2.435       .  S
Zr2106     O2108   2.438       .  S
Zr2106     O2112   2.355       .  S
Zr2106     O2111   2.390       .  S
Zr2106     O2116   2.397       .  S
Zr2106     O2114   2.356       .  S
O2107      H2123   0.990       .  S
O2108      H2122   0.990       .  S
O2108      H2132   0.989       .  S
Zr2109     O2112   2.384       .  S
Zr2109     O2114   2.355       .  S
Zr2109     O2115   2.414       .  S
Zr2110     O2111   2.382       .  S
Zr2110     O2113   2.391       .  S
Zr2110     O2116   2.383       .  S
O2111      H2119   0.957       .  S
O2114      H2118   0.965       .  S
O2115      H2120   0.963       .  S
O2133     Zr2145   2.410       .  S
O2133      C2135   1.281       .  A
O2134     Zr2171   2.482       .  S
O2134      C2135   1.298       .  A
C2135      C2440   1.485       .  S
O2136     Zr2148   2.513       .  S
O2136      C2138   1.301       .  A
O2137     Zr2172   2.387       .  S
O2137      C2138   1.279       .  A
C2138      C2284   1.487       .  S
O2139     Zr2148   2.531       .  S
O2139      C2141   1.287       .  A
O2140     Zr2171   2.366       .  S
O2140      C2141   1.244       .  A
C2141      C2272   1.505       .  S
O2142     Zr2145   2.388       .  S
O2142      C2144   1.275       .  A
O2143     Zr2172   2.462       .  S
O2143      C2144   1.288       .  A
C2144      C2365   1.464   1_455  S
Zr2145     O2146   2.434       .  S
Zr2145     O2147   2.439       .  S
Zr2145     O2151   2.338       .  S
Zr2145     O2152   2.402       .  S
Zr2145     O2175   2.354       .  S
Zr2145     O2177   2.386       .  S
O2146      H2189   0.990       .  S
O2147      H2188   0.990       .  S
O2147      H2192   0.990       .  S
Zr2148     O2149   2.435       .  S
Zr2148     O2150   2.434       .  S
Zr2148     O2152   2.401       .  S
Zr2148     O2151   2.384       .  S
Zr2148     O2176   2.391       .  S
Zr2148     O2178   2.391       .  S
O2149      H2190   0.990       .  S
O2149      H2193   0.990       .  S
O2150      H2183   0.990       .  S
O2151     Zr2171   2.373       .  S
O2152     Zr2172   2.383       .  S
O2152      H2179   0.966       .  S
O2153     Zr2165   2.607       .  S
O2153      C2155   1.322   1_455  A
O2154     Zr2172   2.296   1_655  S
O2154      C2155   1.266       .  A
C2155      C2257   1.495       .  S
O2156     Zr2168   2.383       .  S
O2156      C2158   1.277       .  A
O2157     Zr2171   2.468       .  S
O2157      C2158   1.291       .  A
C2158      C2428   1.459       .  S
O2159     Zr2168   2.414       .  S
O2159      C2161   1.275       .  A
O2160     Zr2172   2.455       .  S
O2160      C2161   1.283       .  A
C2161      C2356   1.494       .  S
O2162     Zr2165   2.539       .  S
O2162      C2164   1.310       .  A
O2163     Zr2171   2.408       .  S
O2163      C2164   1.287       .  A
C2164      C2320   1.509       .  S
Zr2165     O2166   2.436       .  S
Zr2165     O2167   2.435       .  S
Zr2165     O2173   2.359       .  S
Zr2165     O2174   2.386       .  S
Zr2165     O2177   2.407       .  S
Zr2165     O2175   2.349       .  S
O2166      H2186   0.990       .  S
O2166      H2191   0.990       .  S
O2167      H2187   0.990       .  S
Zr2168     O2169   2.436       .  S
Zr2168     O2170   2.443       .  S
Zr2168     O2174   2.363       .  S
Zr2168     O2173   2.351       .  S
Zr2168     O2178   2.385       .  S
Zr2168     O2176   2.366       .  S
O2169      H2185   0.990       .  S
O2170      H2184   0.990       .  S
O2170      H2194   0.990       .  S
Zr2171     O2174   2.386       .  S
Zr2171     O2176   2.412       .  S
Zr2171     O2177   2.394       .  S
Zr2172     O2173   2.390       .  S
Zr2172     O2175   2.366       .  S
Zr2172     O2178   2.380       .  S
O2173      H2181   0.965       .  S
O2176      H2180   0.962       .  S
O2177      H2182   0.966       .  S
O2195     Zr2207   2.378       .  S
O2195      C2197   1.265       .  A
O2196     Zr2233   2.503       .  S
O2196      C2197   1.285       .  A
C2197      C2416   1.484       .  S
O2198     Zr2210   2.472       .  S
O2198      C2200   1.292       .  A
O2199     Zr2234   2.321       .  S
O2199      C2200   1.270       .  A
C2200      C2293   1.439       .  S
O2201     Zr2210   2.581       .  S
O2201      C2203   1.307       .  A
O2202     Zr2233   2.338       .  S
O2202      C2203   1.246       .  A
C2203      C2269   1.508       .  S
O2204     Zr2207   2.389       .  S
O2204      C2206   1.276       .  A
O2205     Zr2234   2.478       .  S
O2205      C2206   1.292       .  A
C2206      C2389   1.466       .  S
Zr2207     O2208   2.437       .  S
Zr2207     O2209   2.441       .  S
Zr2207     O2213   2.363       .  S
Zr2207     O2214   2.360       .  S
Zr2207     O2237   2.356       .  S
Zr2207     O2239   2.382       .  S
O2208      H2251   0.990       .  S
O2209      H2250   0.990       .  S
O2209      H2254   0.990       .  S
Zr2210     O2211   2.436       .  S
Zr2210     O2212   2.435       .  S
Zr2210     O2214   2.404       .  S
Zr2210     O2213   2.357       .  S
Zr2210     O2238   2.345       .  S
Zr2210     O2240   2.431       .  S
O2211      H2252   0.990       .  S
O2211      H2255   0.990       .  S
O2212      H2245   0.990       .  S
O2213     Zr2233   2.378       .  S
O2214     Zr2234   2.392       .  S
O2214      H2241   0.966       .  S
O2215     Zr2227   2.622       .  S
O2215      C2217   1.324       .  A
O2216     Zr2234   2.280       .  S
O2216      C2217   1.262       .  A
C2217      C2260   1.500       .  S
O2218     Zr2230   2.435       .  S
O2218      C2220   1.278       .  A
O2219     Zr2233   2.463       .  S
O2219      C2220   1.288       .  A
C2220      C2404   1.513       .  S
O2221     Zr2230   2.402       .  S
O2221      C2223   1.278       .  A
O2222     Zr2234   2.502       .  S
O2222      C2223   1.297       .  A
C2223      C2377   1.483       .  S
O2224     Zr2227   2.488       .  S
O2224      C2226   1.298       .  A
O2225     Zr2233   2.334       .  S
O2225      C2226   1.275       .  A
C2226      C2308   1.448       .  S
Zr2227     O2228   2.435       .  S
Zr2227     O2229   2.435       .  S
Zr2227     O2235   2.313       .  S
Zr2227     O2236   2.416       .  S
Zr2227     O2239   2.392       .  S
Zr2227     O2237   2.334       .  S
O2228      H2248   0.990       .  S
O2228      H2253   0.990       .  S
O2229      H2249   0.990       .  S
Zr2230     O2231   2.433       .  S
Zr2230     O2232   2.436       .  S
Zr2230     O2236   2.378       .  S
Zr2230     O2235   2.359       .  S
Zr2230     O2240   2.393       .  S
Zr2230     O2238   2.341       .  S
O2231      H2247   0.990       .  S
O2232      H2246   0.990       .  S
O2232      H2256   0.990       .  S
Zr2233     O2236   2.392       .  S
Zr2233     O2238   2.390       .  S
Zr2233     O2239   2.406       .  S
Zr2234     O2235   2.356       .  S
Zr2234     O2237   2.347       .  S
Zr2234     O2240   2.381       .  S
O2235      H2243   0.957       .  S
O2238      H2242   0.964       .  S
O2239      H2244   0.964       .  S
C2257      C2258   1.420       .  A
C2257      C2262   1.408       .  A
C2258      C2259   1.413       .  A
C2258      H2267   1.076       .  S
C2259      C2260   1.405       .  A
C2259      S2263   1.795       .  S
C2260      C2261   1.420       .  A
C2261      C2262   1.411       .  A
C2261      H2268   1.076       .  S
C2262      S2264   1.802       .  S
S2263      H2266   1.406       .  S
S2264      H2265   1.406       .  S
C2269      C2270   1.427       .  A
C2269      C2274   1.403       .  A
C2270      C2271   1.403       .  A
C2270      H2279   1.083       .  S
C2271      C2272   1.402       .  A
C2271      S2275   1.801       .  S
C2272      C2273   1.426       .  A
C2273      C2274   1.410       .  A
C2273      H2280   1.078       .  S
C2274      S2276   1.802       .  S
S2275      H2278   1.404       .  S
S2276      H2277   1.405       .  S
C2281      C2282   1.406   1_655  A
C2281      C2286   1.414   1_655  A
C2282      H2291   1.084   1_455  S
C2283      C2284   1.414       .  A
C2283      S2287   1.804       .  S
C2284      C2285   1.406       .  A
C2285      H2292   1.084       .  S
C2286      S2288   1.802       .  S
S2287      H2290   1.406       .  S
S2288      H2289   1.406   1_455  S
C2293      C2294   1.401       .  A
C2293      C2298   1.410       .  A
C2294      C2295   1.390       .  A
C2294      H2303   1.085       .  S
C2295      C2296   1.408       .  A
C2295      S2299   1.804       .  S
C2296      C2297   1.401       .  A
C2297      C2298   1.393       .  A
C2297      H2304   1.085       .  S
C2298      S2300   1.803       .  S
S2299      H2302   1.406       .  S
S2300      H2301   1.406       .  S
C2305      C2306   1.401       .  A
C2305      C2310   1.409       .  A
C2306      C2307   1.396       .  A
C2306      H2315   1.083       .  S
C2307      C2308   1.412       .  A
C2307      S2311   1.807       .  S
C2308      C2309   1.399       .  A
C2309      C2310   1.392       .  A
C2309      H2316   1.085       .  S
C2310      S2312   1.800       .  S
S2311      H2314   1.407       .  S
S2312      H2313   1.407       .  S
C2317      C2318   1.415       .  A
C2317      C2322   1.415       .  A
C2318      C2319   1.410       .  A
C2318      H2327   1.079       .  S
C2319      C2320   1.412       .  A
C2319      S2323   1.803       .  S
C2320      C2321   1.416       .  A
C2321      C2322   1.416       .  A
C2321      H2328   1.084       .  S
C2322      S2324   1.801       .  S
S2323      H2326   1.406       .  S
S2324      H2325   1.407       .  S
C2329      C2330   1.430       .  A
C2329      C2334   1.407       .  A
C2330      C2331   1.431       .  A
C2330      H2339   1.083       .  S
C2331      C2332   1.417       .  A
C2331      S2335   1.797       .  S
C2332      C2333   1.438       .  A
C2333      C2334   1.420       .  A
C2333      H2340   1.082       .  S
C2334      S2336   1.801       .  S
S2335      H2338   1.405       .  S
S2336      H2337   1.406       .  S
C2341      C2342   1.418       .  A
C2341      C2346   1.400       .  A
C2342      C2343   1.425       .  A
C2342      H2351   1.083       .  S
C2343      C2344   1.415       .  A
C2343      S2347   1.798       .  S
C2344      C2345   1.411       .  A
C2345      C2346   1.386       .  A
C2345      H2352   1.071       .  S
C2346      S2348   1.803       .  S
S2347      H2350   1.405       .  S
S2348      H2349   1.406       .  S
C2353      C2354   1.405       .  A
C2353      C2358   1.405   1_655  A
C2354      C2355   1.404       .  A
C2354      H2363   1.065       .  S
C2355      C2356   1.410   1_655  A
C2355      S2359   1.801       .  S
C2356      C2357   1.410       .  A
C2357      C2358   1.403       .  A
C2357      H2364   1.077       .  S
C2358      S2360   1.799       .  S
S2359      H2362   1.399       .  S
S2360      H2361   1.407       .  S
C2365      C2366   1.410       .  A
C2365      C2370   1.399       .  A
C2366      C2367   1.399       .  A
C2366      H2375   1.084   1_655  S
C2367      C2368   1.402       .  A
C2367      S2371   1.801       .  S
C2368      C2369   1.410       .  A
C2369      C2370   1.396       .  A
C2369      H2376   1.074       .  S
C2370      S2372   1.803       .  S
S2371      H2374   1.407       .  S
S2372      H2373   1.404       .  S
C2377      C2378   1.392       .  A
C2377      C2382   1.427       .  A
C2378      C2379   1.400       .  A
C2378      H2387   1.083       .  S
C2379      C2380   1.423       .  A
C2379      S2383   1.805       .  S
C2380      C2381   1.394       .  A
C2381      C2382   1.410       .  A
C2381      H2388   1.082       .  S
C2382      S2384   1.799       .  S
S2383      H2386   1.407       .  S
S2384      H2385   1.407       .  S
C2389      C2390   1.410       .  A
C2389      C2394   1.401       .  A
C2390      C2391   1.401       .  A
C2390      H2399   1.084       .  S
C2391      C2392   1.405       .  A
C2391      S2395   1.798       .  S
C2392      C2393   1.413       .  A
C2393      C2394   1.395       .  A
C2393      H2400   1.080       .  S
C2394      S2396   1.803       .  S
S2395      H2398   1.405       .  S
S2396      H2397   1.405       .  S
C2401      C2402   1.400       .  A
C2401      C2406   1.409       .  A
C2402      C2403   1.402       .  A
C2402      H2411   1.075       .  S
C2403      C2404   1.421       .  A
C2403      S2407   1.808       .  S
C2404      C2405   1.418       .  A
C2405      C2406   1.415       .  A
C2405      H2412   1.082       .  S
C2406      S2408   1.796       .  S
S2407      H2410   1.407       .  S
S2408      H2409   1.406       .  S
C2413      C2414   1.403       .  A
C2413      C2418   1.429       .  A
C2414      C2415   1.410       .  A
C2414      H2423   1.082       .  S
C2415      C2416   1.417       .  A
C2415      S2419   1.795       .  S
C2416      C2417   1.396       .  A
C2417      C2418   1.394       .  A
C2417      H2424   1.084       .  S
C2418      S2420   1.815       .  S
S2419      H2422   1.407       .  S
S2420      H2421   1.407       .  S
C2425      C2426   1.393       .  A
C2425      C2430   1.433       .  A
C2426      C2427   1.393       .  A
C2426      H2435   1.084       .  S
C2427      C2428   1.411       .  A
C2427      S2431   1.774       .  S
C2428      C2429   1.393       .  A
C2429      C2430   1.394       .  A
C2429      H2436   1.084       .  S
C2430      S2432   1.814       .  S
S2431      H2434   1.401       .  S
S2432      H2433   1.407       .  S
C2437      C2438   1.414       .  A
C2437      C2442   1.404       .  A
C2438      C2439   1.403       .  A
C2438      H2447   1.072       .  S
C2439      C2440   1.401       .  A
C2439      S2443   1.799       .  S
C2440      C2441   1.414       .  A
C2441      C2442   1.402       .  A
C2441      H2448   1.084       .  S
C2442      S2444   1.801       .  S
S2443      H2446   1.406       .  S
S2444      H2445   1.407       .  S
C2449      C2450   1.403       .  A
C2449      C2454   1.411       .  A
C2450      C2451   1.401       .  A
C2450      H2459   1.083       .  S
C2451      C2452   1.407       .  A
C2451      S2455   1.803       .  S
C2452      C2453   1.387       .  A
C2453      C2454   1.371       .  A
C2453      H3340   1.087       .  S
C2454      S3336   1.793   1_554  S
S2455      H2458   1.406       .  S
S2456      C3334   1.793       .  S
S2456      H2457   1.408       .  S
H2460      C3333   1.087       .  S
C2461      C2462   1.389       .  A
C2461      C3346   1.413       .  A
C2462      C2463   1.390       .  A
C2462      H2471   1.084       .  S
C2463      C2464   1.421       .  A
C2463      S2467   1.810       .  S
C2464      C3345   1.394       .  A
C2465      C3344   1.394       .  A
C2465      C2466   1.397       .  A
C2465      H2472   1.083       .  S
C2466      C3341   1.413       .  A
C2466      S2468   1.807       .  S
S2467      H2470   1.407       .  S
S2468      H2469   1.407       .  S
C2473      C2474   1.402       .  A
C2473      C2478   1.432       .  A
C2474      C2475   1.407       .  A
C2474      H2483   1.082       .  S
C2475      C2476   1.425       .  A
C2475      S2479   1.802       .  S
C2476      C2477   1.402       .  A
C2477      C2478   1.418       .  A
C2477      H2484   1.084       .  S
C2478      S2480   1.798       .  S
S2479      H2482   1.408       .  S
S2480      H2481   1.396       .  S
C2485      C2486   1.411       .  A
C2485      C2490   1.407       .  A
C2486      C2487   1.411       .  A
C2486      H2495   1.084       .  S
C2487      C2488   1.413       .  A
C2487      S2491   1.794       .  S
C2488      C2489   1.409       .  A
C2489      C2490   1.395       .  A
C2489      H2496   1.085       .  S
C2490      S2492   1.797       .  S
S2492      H2493   1.405       .  S
C2497      C2498   1.415       .  A
C2497      C2502   1.416       .  A
C2498      C2499   1.404       .  A
C2498      H2507   1.083       .  S
C2499      C2500   1.411       .  A
C2499      S2503   1.802       .  S
C2500      C2501   1.421       .  A
C2501      C2502   1.425       .  A
C2501      H2508   1.083       .  S
C2502      S2504   1.799       .  S
S2503      H2506   1.406       .  S
S2504      H2505   1.405       .  S
C2509      C2510   1.405       .  A
C2509      C2514   1.427       .  A
C2510      C2511   1.413       .  A
C2510      H2519   1.083       .  S
C2511      C2512   1.418       .  A
C2511      S2515   1.803       .  S
C2512      C2513   1.391       .  A
C2513      C2514   1.395       .  A
C2513      H2520   1.084       .  S
C2514      S2516   1.815       .  S
S2515      H2518   1.406       .  S
S2516      H2517   1.407       .  S
C2521      C2522   1.407       .  A
C2521      C2526   1.423   1_545  A
C2522      C2523   1.397   1_545  A
C2523      C2524   1.417       .  A
C2523      S3407   1.805       .  S
C2524      C2525   1.406       .  A
C2525      C2526   1.411       .  A
C2525      H2532   1.084       .  S
C2526      S2528   1.799       .  S
S2527      C3403   1.805       .  S
S2527      H2530   1.407       .  S
S2528      H2529   1.408   1_565  S
C2533      C2534   1.410       .  A
C2533      C2538   1.413       .  A
C2534      C2535   1.406       .  A
C2534      H2543   1.084       .  S
C2535      C2536   1.414       .  A
C2535      S2539   1.804       .  S
C2536      C2537   1.411       .  A
C2537      C2538   1.410       .  A
C2537      H3424   1.084   1_554  S
C2538      S3420   1.799   1_554  S
S2539      H2542   1.407       .  S
S2540      C3418   1.799       .  S
S2540      H2541   1.406       .  S
H2544      C3417   1.084       .  S
C2545      C2546   1.407       .  A
C2545      C2550   1.402       .  A
C2546      C2547   1.397       .  A
C2546      H2555   1.084       .  S
C2547      C2548   1.405       .  A
C2547      S2551   1.805       .  S
C2548      C2549   1.406       .  A
C2549      C2550   1.385       .  A
C2549      H2556   1.084       .  S
C2550      S2552   1.803       .  S
S2551      H2554   1.403       .  S
S2552      H2553   1.399       .  S
C2557      C2558   1.311       .  A
C2557      C2562   1.399       .  A
C2558      C2559   1.368       .  A
C2558      H2567   1.033       .  S
C2559      C2560   1.389       .  A
C2559      S2563   2.237       .  S
C2560      C2561   1.434       .  A
C2561      C2562   1.430       .  A
C2561      H2568   1.081       .  S
C2562      S2564   1.773       .  S
S2563      H2566   1.241       .  S
S2564      H2565   1.408       .  S
C2569      C2570   1.390       .  A
C2569      C2574   1.406       .  A
C2570      C2571   1.388       .  A
C2570      H2579   1.084       .  S
C2571      C2572   1.426       .  A
C2571      S2575   1.812       .  S
C2572      C2573   1.404       .  A
C2573      C2574   1.389       .  A
C2573      H2580   1.084       .  S
C2574      S2576   1.804       .  S
S2575      H2578   1.407       .  S
S2576      H2577   1.401       .  S
C2581      C2582   1.413       .  A
C2581      C2586   1.414       .  A
C2582      C2583   1.390       .  A
C2582      H2591   1.070       .  S
C2583      C2584   1.396       .  A
C2583      S2587   1.810       .  S
C2584      C2585   1.415       .  A
C2585      C2586   1.420       .  A
C2585      H2592   1.082       .  S
C2586      S2588   1.799       .  S
S2587      H2590   1.399       .  S
S2588      H2589   1.404       .  S
C2593      C2829   1.515       .  S
C2593      C3478   1.418   1_655  A
C2594      C2595   1.405   1_655  A
C2594      H2603   1.083       .  S
C2595      C2596   1.415       .  A
C2595      S2599   1.803       .  S
C2596      C3477   1.415       .  A
C2597      C3476   1.415       .  A
C2598      C3473   1.418   1_455  A
C2598      S2600   1.800       .  S
S2599      H2602   1.408       .  S
S2600      H2601   1.408   1_455  S
C2605      C2606   1.398       .  A
C2605      C2610   1.417       .  A
C2606      C2607   1.402       .  A
C2606      H2615   1.083       .  S
C2607      C2608   1.411       .  A
C2607      S2611   1.796       .  S
C2608      C2609   1.396       .  A
C2609      C2610   1.397       .  A
C2609      H3496   1.084   1_554  S
C2610      S3492   1.802   1_554  S
S2611      H2614   1.407       .  S
S2612      C3490   1.802       .  S
S2612      H2613   1.405       .  S
H2616      C3489   1.084       .  S
C2617      C3498   1.403       .  A
C2617      C2622   1.410       .  A
C2618      C3497   1.403       .  A
C2618      C2619   1.405       .  A
C2618      H2627   1.084       .  S
C2619      C2620   1.417       .  A
C2619      S2623   1.801       .  S
C2620      C3501   1.403   1_554  A
C2621      C3500   1.403       .  A
C2621      C2622   1.395       .  A
C2621      H2628   1.085       .  S
C2622      S2624   1.796       .  S
S2623      H2626   1.399       .  S
S2624      H2625   1.403       .  S
C2629      C2630   1.409       .  A
C2629      C3514   1.425       .  A
C2630      C2631   1.396       .  A
C2630      H2639   1.083       .  S
C2631      C2632   1.411       .  A
C2631      S2635   1.805       .  S
C2632      C3513   1.399       .  A
C2633      C3512   1.399       .  A
C2633      C2634   1.402       .  A
C2633      H2640   1.083       .  S
C2634      C3509   1.425       .  A
C2634      S2636   1.810       .  S
S2635      H2638   1.408       .  S
S2636      H2637   1.407       .  S
O2641     Zr2653   2.463       .  S
O2642     Zr2679   2.388       .  S
O2642      C2643   1.281       .  A
C2643      C3512   1.474       .  S
O2644     Zr2656   2.540       .  S
O2644      C2646   1.290       .  A
O2645     Zr2680   2.539       .  S
O2645      C2646   1.275       .  A
C2646      C3440   1.370       .  S
O2647     Zr2656   2.454       .  S
O2648     Zr2679   2.420       .  S
O2648      C2649   1.283       .  A
C2649      C3497   1.477       .  S
O2650     Zr2653   2.719       .  S
O2650      C2652   1.337       .  A
O2651     Zr2680   2.549       .  S
O2651      C2652   1.285       .  A
C2652      C3437   1.484       .  S
Zr2653     O2654   2.435       .  S
Zr2653     O2655   2.443       .  S
Zr2653     O2659   2.569       .  S
Zr2653     O2660   2.340       .  S
Zr2653     O2683   2.456       .  S
O2654      H2697   0.990       .  S
O2655      H2696   0.990       .  S
O2655      H2700   0.990       .  S
Zr2656     O2657   2.440       .  S
Zr2656     O2658   2.436       .  S
Zr2656     O2660   2.478       .  S
Zr2656     O2659   2.564       .  S
Zr2656     O2686   2.615       .  S
O2657      H2698   0.990       .  S
O2657      H2701   0.990       .  S
O2658      H2691   0.990       .  S
O2660     Zr2680   3.587       .  S
O2660      H2687   0.974       .  S
O2661     Zr2673   2.424   1_655  S
O2662     Zr2680   2.447   1_655  S
O2662      C2663   1.289       .  A
C2663      C3485   1.474       .  S
O2664     Zr2676   2.451   1_556  S
O2664      C2666   1.291       .  A
O2665     Zr2679   2.370   1_556  S
O2665      C2666   1.274       .  A
C2666      C3452   1.472       .  S
O2667     Zr2676   2.449       .  S
O2668     Zr2680   2.478       .  S
O2668      C2669   1.296       .  A
C2669      C3476   1.509       .  S
O2670     Zr2673   2.397   1_556  S
O2670      C2672   1.279       .  A
O2671     Zr2679   2.429   1_556  S
O2671      C2672   1.283       .  A
C2672      C3428   1.457       .  S
Zr2673     O2674   2.440   1_454  S
Zr2673     O2675   2.436   1_455  S
Zr2673     O2681   2.379       .  S
Zr2673     O2682   2.384   1_554  S
Zr2673     O2685   2.371       .  S
O2674      H2694   0.990       .  S
O2674      H2699   0.990       .  S
O2675      H2695   0.990       .  S
Zr2676     O2677   2.434   1_554  S
Zr2676     O2678   2.433       .  S
Zr2676     O2682   2.414   1_554  S
Zr2676     O2681   2.461       .  S
Zr2676     O2684   2.447       .  S
O2677      H2693   0.990       .  S
O2678      H2702   0.990   1_554  S
Zr2679     O2682   2.401   1_554  S
Zr2679     O2684   2.425       .  S
Zr2679     O2685   2.404       .  S
Zr2680     O2683   2.463       .  S
Zr2680     O2686   2.688       .  S
O2681      H2689   0.960       .  S
O2684      H2688   0.966       .  S
O2685      H2690   0.966       .  S
O2703     Zr2715   2.485       .  S
O2703      C2705   1.297       .  A
O2704     Zr2741   2.404       .  S
O2704      C2705   1.287       .  A
C2705      C3500   1.478       .  S
O2706     Zr2718   2.341       .  S
O2706      C2708   1.269       .  A
O2707      C2708   1.308       .  A
C2708      C3377   1.513       .  S
O2709     Zr2718   2.386       .  S
O2709      C2711   1.276       .  A
O2710      C2711   1.307       .  A
C2711      C3356   1.511       .  S
O2712     Zr2715   2.518       .  S
O2712      C2714   1.303       .  A
O2713     Zr2742   2.392       .  S
O2713      C2714   1.282       .  A
C2714      C3413   1.496       .  S
Zr2715     O2717   2.436       .  S
Zr2715     O2721   2.397       .  S
Zr2715     O2722   2.365       .  S
Zr2715     O2745   2.374       .  S
Zr2715     O2747   2.387       .  S
O2716      H2759   0.990       .  S
O2717      H2758   0.989       .  S
O2717      H2762   0.990       .  S
Zr2718     O2719   2.435       .  S
Zr2718     O2720   2.435       .  S
O2719      H2760   0.990       .  S
O2719      H2763   0.990       .  S
O2720      H2753   0.990       .  S
O2721     Zr2741   2.387       .  S
O2722     Zr2742   2.388       .  S
O2723     Zr2735   2.373       .  S
O2723      C2725   1.272       .  A
O2724     Zr2742   2.514       .  S
O2724      C2725   1.302       .  A
C2725      C3389   1.492       .  S
O2726     Zr2738   2.481       .  S
O2726      C2728   1.296       .  A
O2727     Zr2741   2.419       .  S
O2727      C2728   1.290       .  A
O2729     Zr2738   2.468       .  S
O2729      C2731   1.291       .  A
O2730     Zr2742   2.400       .  S
O2730      C2731   1.284       .  A
C2731      C3488   1.467       .  S
O2732     Zr2735   2.410       .  S
O2732      C2734   1.272       .  A
O2733     Zr2741   2.484       .  S
O2733      C2734   1.292       .  A
C2734      C3365   1.481       .  S
Zr2735     O2736   2.444       .  S
Zr2735     O2737   2.434       .  S
Zr2735     O2743   2.380       .  S
Zr2735     O2744   2.355       .  S
Zr2735     O2747   2.346       .  S
Zr2735     O2745   2.361       .  S
O2736      H2756   0.989       .  S
O2736      H2761   0.990       .  S
O2737      H2757   0.990       .  S
Zr2738     O2739   2.433       .  S
Zr2738     O2744   2.350       .  S
Zr2738     O2743   2.378       .  S
Zr2738     O2748   2.382       .  S
Zr2738     O2746   2.382       .  S
O2739      H2755   0.990       .  S
O2740      H2754   0.990       .  S
Zr2741     O2744   2.378       .  S
Zr2741     O2746   2.381       .  S
Zr2741     O2747   2.418       .  S
Zr2742     O2743   2.401       .  S
Zr2742     O2745   2.401       .  S
Zr2742     O2748   2.391       .  S
O2743      H2751   0.965       .  S
O2747      H2752   0.964       .  S
O2765     Zr2777   2.460       .  S
O2766     Zr2803   2.407       .  S
O2766      C2767   1.286   1_556  A
C2767      C3509   1.493       .  S
O2768     Zr2780   2.435       .  S
O2768      C2770   1.284       .  A
O2769     Zr2804   2.483       .  S
O2769      C2770   1.294       .  A
C2770      C3317   1.486       .  S
O2771     Zr2780   2.422       .  S
O2772     Zr2803   2.412       .  S
O2772      C2773   1.284       .  A
C2773      C3341   1.450       .  S
O2774     Zr2777   2.509       .  S
O2774      C2776   1.294       .  A
O2775     Zr2804   2.387       .  S
O2775      C2776   1.262       .  A
C2776      C3293   1.497       .  S
Zr2777     O2778   2.435       .  S
Zr2777     O2779   2.437       .  S
Zr2777     O2783   2.380       .  S
Zr2777     O2784   2.355       .  S
Zr2777     O2807   2.353       .  S
O2778      H2821   0.990       .  S
O2779      H2820   0.990       .  S
O2779      H2824   0.990       .  S
Zr2780     O2781   2.436       .  S
Zr2780     O2782   2.434       .  S
Zr2780     O2784   2.344       .  S
Zr2780     O2783   2.367       .  S
Zr2780     O2810   2.381       .  S
O2781      H2822   0.990       .  S
O2781      H2825   0.990       .  S
O2782      H2815   0.990       .  S
O2784     Zr2804   2.392       .  S
O2784      H2811   0.954       .  S
O2785      C2787   1.277       .  A
O2786     Zr2804   2.438       .  S
O2786      C2787   1.287       .  A
C2787      C3329   1.452       .  S
O2788     Zr2800   2.500       .  S
O2788      C2790   1.295       .  A
O2789     Zr2803   2.354       .  S
O2789      C2790   1.256       .  A
C2790      C3305   1.477       .  S
O2791      C2793   1.288       .  A
O2792     Zr2804   2.458       .  S
O2792      C2793   1.295       .  A
C2793      C3404   1.493       .  S
O2794     Zr2797   2.416       .  S
O2794      C2796   1.271       .  A
O2795     Zr2803   2.502       .  S
O2795      C2796   1.288       .  A
C2796      C3281   1.507       .  S
Zr2797     O2798   2.444       .  S
Zr2797     O2799   2.435       .  S
Zr2797     O2806   2.353       .  S
Zr2797     O2809   2.392   1_556  S
O2798      H2818   0.990       .  S
O2798      H2823   0.989       .  S
Zr2800     O2801   2.434       .  S
Zr2800     O2802   2.435       .  S
Zr2800     O2806   2.361       .  S
Zr2800     O2808   2.336   1_556  S
O2801      H2817   0.990       .  S
O2802      H2826   0.990       .  S
Zr2803     O2806   2.381       .  S
Zr2803     O2808   2.403   1_556  S
Zr2803     O2809   2.391   1_556  S
Zr2804     O2805   2.384       .  S
Zr2804     O2807   2.393       .  S
Zr2804     O2810   2.388       .  S
O2808      H2812   0.963   1_554  S
O2809      H2814   0.966   1_554  S
O2827     Zr2839   2.433       .  S
O2828     Zr2865   2.470       .  S
O2828      C2829   1.296   1_556  A
O2830     Zr2842   2.439       .  S
O2830      C2832   1.286       .  A
O2831     Zr2866   2.440       .  S
O2831      C2832   1.286       .  A
C2832      C3248   1.470       .  S
O2833     Zr2842   2.386   1_455  S
O2834     Zr2865   2.456   1_455  S
O2834      C2835   1.291       .  A
C2835      C3344   1.457       .  S
O2836     Zr2839   2.481       .  S
O2836      C2838   1.289       .  A
O2837     Zr2866   2.391       .  S
O2837      C2838   1.267       .  A
C2838      C3272   1.482       .  S
Zr2839     O2840   2.434       .  S
Zr2839     O2841   2.433       .  S
Zr2839     O2845   2.389       .  S
Zr2839     O2846   2.362       .  S
Zr2839     O2869   2.364       .  S
O2840      H2883   0.990       .  S
O2841      H2882   0.990       .  S
O2841      H2886   0.990       .  S
Zr2842     O2843   2.435   1_655  S
Zr2842     O2844   2.435   1_655  S
Zr2842     O2846   2.338       .  S
Zr2842     O2845   2.383       .  S
Zr2842     O2870   2.374       .  S
Zr2842     O2872   2.379       .  S
O2843      H2884   0.990       .  S
O2843      H2887   0.990       .  S
O2844      H2877   0.990       .  S
O2846     Zr2866   2.384       .  S
O2846      H2873   0.957       .  S
O2847      C2849   1.288       .  A
O2848     Zr2866   2.354       .  S
O2848      C2849   1.273       .  A
C2849      C3332   1.433       .  S
O2850     Zr2862   2.545       .  S
O2850      C2852   1.308       .  A
O2851     Zr2865   2.356       .  S
O2851      C2852   1.277       .  A
C2852      C3233   1.483       .  S
O2853      C2855   1.294       .  A
O2854     Zr2866   2.446       .  S
O2854      C2855   1.291       .  A
C2855      C3416   1.497       .  S
O2856     Zr2859   2.375   1_556  S
O2856      C2858   1.274       .  A
O2857     Zr2865   2.526       .  S
O2857      C2858   1.304       .  A
C2858      C3260   1.483       .  S
Zr2859     O2860   2.439   1_554  S
Zr2859     O2861   2.435       .  S
Zr2859     O2868   2.363   1_554  S
Zr2859     O2871   2.378       .  S
O2860      H2880   0.990       .  S
O2860      H2885   0.990       .  S
Zr2862     O2863   2.445       .  S
Zr2862     O2868   2.357       .  S
O2863      H2879   0.989       .  S
O2864      H2878   0.990       .  S
Zr2865     O2868   2.354       .  S
Zr2865     O2871   2.399   1_556  S
Zr2866     O2867   2.391       .  S
Zr2866     O2869   2.394       .  S
Zr2866     O2872   2.378       .  S
O2867      H2875   0.964       .  S
O2871      H2876   0.966       .  S
O2889     Zr2901   2.524       .  S
O2889      C2891   1.280       .  A
O2890     Zr2927   2.371       .  S
O2890      C2891   1.248       .  A
C2891      C3461   1.502       .  S
O2892      C2894   1.289       .  A
O2893     Zr2928   2.374       .  S
C2894      C3185   1.458   1_545  S
O2895     Zr2904   2.468       .  S
O2895      C2897   1.291       .  A
O2896     Zr2927   2.458       .  S
O2896      C2897   1.297       .  A
C2897      C3221   1.495       .  S
O2898     Zr2901   2.378       .  S
O2898      C2900   1.278       .  A
O2899     Zr2928   2.503       .  S
O2899      C2900   1.301       .  A
C2900      C3368   1.490       .  S
Zr2901     O2902   2.434       .  S
Zr2901     O2903   2.434       .  S
Zr2901     O2907   2.356       .  S
Zr2901     O2908   2.414       .  S
Zr2901     O2931   2.415       .  S
Zr2901     O2933   2.345       .  S
O2902      H2945   0.990       .  S
O2903      H2944   0.990       .  S
O2903      H2948   0.990       .  S
Zr2904     O2908   2.381       .  S
Zr2904     O2907   2.362       .  S
Zr2904     O2932   2.386       .  S
Zr2904     O2934   2.365       .  S
O2905      H2946   0.990       .  S
O2905      H2949   0.990   1_545  S
O2906      H2939   0.990       .  S
O2907     Zr2927   2.356       .  S
O2908     Zr2928   2.402       .  S
O2908      H2935   0.966       .  S
O2909     Zr2921   2.630       .  S
O2909      C2911   1.327       .  A
O2910     Zr2928   2.362       .  S
O2910      C2911   1.276       .  A
C2911      C3209   1.539       .  S
O2912     Zr2924   2.421       .  S
O2912      C2914   1.280       .  A
O2913     Zr2927   2.380       .  S
O2913      C2914   1.277       .  A
C2914      C3449   1.444       .  S
O2915     Zr2924   2.377       .  S
O2915      C2917   1.264       .  A
O2916     Zr2928   2.533       .  S
O2916      C2917   1.298       .  A
C2917      C3353   1.517       .  S
O2918     Zr2921   2.538       .  S
O2918      C2920   1.309       .  A
O2919     Zr2927   2.455       .  S
O2919      C2920   1.291       .  A
C2920      C3197   1.515       .  S
Zr2921     O2922   2.434       .  S
Zr2921     O2923   2.434       .  S
Zr2921     O2929   2.343       .  S
Zr2921     O2930   2.422       .  S
Zr2921     O2933   2.405       .  S
Zr2921     O2931   2.377       .  S
O2922      H2942   0.990       .  S
O2922      H2947   0.990       .  S
O2923      H2943   0.990       .  S
Zr2924     O2925   2.435       .  S
Zr2924     O2926   2.437       .  S
Zr2924     O2930   2.352       .  S
Zr2924     O2929   2.384       .  S
Zr2924     O2934   2.385       .  S
Zr2924     O2932   2.356       .  S
O2925      H2941   0.990       .  S
O2926      H2940   0.990       .  S
O2926      H2950   0.990       .  S
Zr2927     O2930   2.386       .  S
Zr2927     O2932   2.364       .  S
Zr2927     O2933   2.406       .  S
Zr2928     O2929   2.403       .  S
Zr2928     O2931   2.397       .  S
Zr2928     O2934   2.392       .  S
O2929      H2937   0.961       .  S
O2932      H2936   0.964       .  S
O2933      H2938   0.962       .  S
O2951     Zr2963   2.536       .  S
O2951      C2953   1.282   1_655  A
O2952     Zr2989   2.353   1_455  S
O2952      C2953   1.248       .  A
C2953      C3224   1.506       .  S
O2954     Zr2966   2.456       .  S
O2954      C2956   1.288       .  A
O2955     Zr2990   2.326       .  S
O2955      C2956   1.269       .  A
C2956      C3176   1.439       .  S
O2957     Zr2966   2.455   1_455  S
O2957      C2959   1.288       .  A
O2958     Zr2989   2.448   1_455  S
O2958      C2959   1.295       .  A
C2959      C3464   1.488       .  S
O2960     Zr2963   2.408       .  S
O2960      C2962   1.281       .  A
O2961     Zr2990   2.478       .  S
O2961      C2962   1.297       .  A
C2962      C3392   1.472       .  S
Zr2963     O2964   2.431       .  S
Zr2963     O2965   2.434       .  S
Zr2963     O2969   2.371       .  S
Zr2963     O2970   2.417       .  S
Zr2963     O2993   2.407       .  S
Zr2963     O2995   2.352       .  S
O2964      H3007   0.990       .  S
O2965      H3006   0.990       .  S
O2965      H3010   0.990       .  S
Zr2966     O2967   2.438       .  S
Zr2966     O2968   2.435       .  S
Zr2966     O2970   2.361       .  S
Zr2966     O2969   2.371       .  S
Zr2966     O2994   2.374       .  S
Zr2966     O2996   2.377       .  S
O2967      H3008   0.990       .  S
O2967      H3011   0.990       .  S
O2968      H3001   0.990       .  S
O2969     Zr2989   2.364       .  S
O2970     Zr2990   2.390       .  S
O2970      H2997   0.964       .  S
O2971     Zr2983   2.649       .  S
O2971      C2973   1.329       .  A
O2972     Zr2990   2.329       .  S
O2972      C2973   1.268       .  A
C2973      C3212   1.560       .  S
O2974     Zr2986   2.440       .  S
O2974      C2976   1.286   1_655  A
O2975     Zr2989   2.386   1_455  S
O2975      C2976   1.277       .  A
C2976      C3425   1.454       .  S
O2977     Zr2986   2.389       .  S
O2977      C2979   1.265       .  A
O2978     Zr2990   2.533       .  S
O2978      C2979   1.298       .  A
C2979      C3380   1.517       .  S
O2980     Zr2983   2.519       .  S
O2980      C2982   1.304       .  A
O2981     Zr2989   2.428       .  S
O2981      C2982   1.283       .  A
C2982      C3161   1.486       .  S
Zr2983     O2984   2.435       .  S
Zr2983     O2985   2.433       .  S
Zr2983     O2991   2.331       .  S
Zr2983     O2992   2.439       .  S
Zr2983     O2995   2.403       .  S
Zr2983     O2993   2.366       .  S
O2984      H3004   0.990       .  S
O2984      H3009   0.990       .  S
O2985      H3005   0.990       .  S
Zr2986     O2987   2.435       .  S
Zr2986     O2988   2.438       .  S
Zr2986     O2992   2.355       .  S
Zr2986     O2991   2.390       .  S
Zr2986     O2996   2.397       .  S
Zr2986     O2994   2.356       .  S
O2987      H3003   0.990       .  S
O2988      H3002   0.990       .  S
O2988      H3012   0.989       .  S
Zr2989     O2992   2.384       .  S
Zr2989     O2994   2.355       .  S
Zr2989     O2995   2.414       .  S
Zr2990     O2991   2.382       .  S
Zr2990     O2993   2.391       .  S
Zr2990     O2996   2.383       .  S
O2991      H2999   0.957       .  S
O2994      H2998   0.965       .  S
O2995      H3000   0.963       .  S
O3013     Zr3025   2.410       .  S
O3013      C3015   1.281       .  A
O3014     Zr3051   2.482       .  S
O3014      C3015   1.298       .  A
C3015      C3320   1.485       .  S
O3016     Zr3028   2.513       .  S
O3016      C3018   1.301       .  A
O3017     Zr3052   2.387       .  S
O3017      C3018   1.279       .  A
C3018      C3164   1.487       .  S
O3019     Zr3028   2.531       .  S
O3019      C3021   1.287       .  A
O3020     Zr3051   2.366       .  S
O3020      C3021   1.244       .  A
C3021      C3152   1.505       .  S
O3022     Zr3025   2.388       .  S
O3022      C3024   1.275       .  A
O3023     Zr3052   2.462       .  S
O3023      C3024   1.288       .  A
C3024      C3245   1.464   1_455  S
Zr3025     O3026   2.434       .  S
Zr3025     O3027   2.439       .  S
Zr3025     O3031   2.338       .  S
Zr3025     O3032   2.402       .  S
Zr3025     O3055   2.354       .  S
Zr3025     O3057   2.386       .  S
O3026      H3069   0.990       .  S
O3027      H3068   0.990       .  S
O3027      H3072   0.990       .  S
Zr3028     O3029   2.435       .  S
Zr3028     O3030   2.434       .  S
Zr3028     O3032   2.401       .  S
Zr3028     O3031   2.384       .  S
Zr3028     O3056   2.391       .  S
Zr3028     O3058   2.391       .  S
O3029      H3070   0.990       .  S
O3029      H3073   0.990       .  S
O3030      H3063   0.990       .  S
O3031     Zr3051   2.373       .  S
O3032     Zr3052   2.383       .  S
O3032      H3059   0.966       .  S
O3033     Zr3045   2.607       .  S
O3033      C3035   1.322   1_455  A
O3034     Zr3052   2.296   1_655  S
O3034      C3035   1.266       .  A
C3035      C3137   1.495       .  S
O3036     Zr3048   2.383       .  S
O3036      C3038   1.277       .  A
O3037     Zr3051   2.468       .  S
O3037      C3038   1.291       .  A
C3038      C3308   1.459       .  S
O3039     Zr3048   2.414       .  S
O3039      C3041   1.275       .  A
O3040     Zr3052   2.455       .  S
O3040      C3041   1.283       .  A
C3041      C3236   1.494       .  S
O3042     Zr3045   2.539       .  S
O3042      C3044   1.310       .  A
O3043     Zr3051   2.408       .  S
O3043      C3044   1.287       .  A
C3044      C3200   1.509       .  S
Zr3045     O3046   2.436       .  S
Zr3045     O3047   2.435       .  S
Zr3045     O3053   2.359       .  S
Zr3045     O3054   2.386       .  S
Zr3045     O3057   2.407       .  S
Zr3045     O3055   2.349       .  S
O3046      H3066   0.990       .  S
O3046      H3071   0.990       .  S
O3047      H3067   0.990       .  S
Zr3048     O3049   2.436       .  S
Zr3048     O3050   2.443       .  S
Zr3048     O3054   2.363       .  S
Zr3048     O3053   2.351       .  S
Zr3048     O3058   2.385       .  S
Zr3048     O3056   2.366       .  S
O3049      H3065   0.990       .  S
O3050      H3064   0.990       .  S
O3050      H3074   0.990       .  S
Zr3051     O3054   2.386       .  S
Zr3051     O3056   2.412       .  S
Zr3051     O3057   2.394       .  S
Zr3052     O3053   2.390       .  S
Zr3052     O3055   2.366       .  S
Zr3052     O3058   2.380       .  S
O3053      H3061   0.965       .  S
O3056      H3060   0.962       .  S
O3057      H3062   0.966       .  S
O3075     Zr3087   2.378       .  S
O3075      C3077   1.265       .  A
O3076     Zr3113   2.503       .  S
O3076      C3077   1.285       .  A
C3077      C3296   1.484       .  S
O3078     Zr3090   2.472       .  S
O3078      C3080   1.292       .  A
O3079     Zr3114   2.321       .  S
O3079      C3080   1.270       .  A
C3080      C3173   1.439       .  S
O3081     Zr3090   2.581       .  S
O3081      C3083   1.307       .  A
O3082     Zr3113   2.338       .  S
O3082      C3083   1.246       .  A
C3083      C3149   1.508       .  S
O3084     Zr3087   2.389       .  S
O3084      C3086   1.276       .  A
O3085     Zr3114   2.478       .  S
O3085      C3086   1.292       .  A
C3086      C3269   1.466       .  S
Zr3087     O3088   2.437       .  S
Zr3087     O3089   2.441       .  S
Zr3087     O3093   2.363       .  S
Zr3087     O3094   2.360       .  S
Zr3087     O3117   2.356       .  S
Zr3087     O3119   2.382       .  S
O3088      H3131   0.990       .  S
O3089      H3130   0.990       .  S
O3089      H3134   0.990       .  S
Zr3090     O3091   2.436       .  S
Zr3090     O3092   2.435       .  S
Zr3090     O3094   2.404       .  S
Zr3090     O3093   2.357       .  S
Zr3090     O3118   2.345       .  S
Zr3090     O3120   2.431       .  S
O3091      H3132   0.990       .  S
O3091      H3135   0.990       .  S
O3092      H3125   0.990       .  S
O3093     Zr3113   2.378       .  S
O3094     Zr3114   2.392       .  S
O3094      H3121   0.966       .  S
O3095     Zr3107   2.622       .  S
O3095      C3097   1.324       .  A
O3096     Zr3114   2.280       .  S
O3096      C3097   1.262       .  A
C3097      C3140   1.500       .  S
O3098     Zr3110   2.435       .  S
O3098      C3100   1.278       .  A
O3099     Zr3113   2.463       .  S
O3099      C3100   1.288       .  A
C3100      C3284   1.513       .  S
O3101     Zr3110   2.402       .  S
O3101      C3103   1.278       .  A
O3102     Zr3114   2.502       .  S
O3102      C3103   1.297       .  A
C3103      C3257   1.483       .  S
O3104     Zr3107   2.488       .  S
O3104      C3106   1.298       .  A
O3105     Zr3113   2.334       .  S
O3105      C3106   1.275       .  A
C3106      C3188   1.448       .  S
Zr3107     O3108   2.435       .  S
Zr3107     O3109   2.435       .  S
Zr3107     O3115   2.313       .  S
Zr3107     O3116   2.416       .  S
Zr3107     O3119   2.392       .  S
Zr3107     O3117   2.334       .  S
O3108      H3128   0.990       .  S
O3108      H3133   0.990       .  S
O3109      H3129   0.990       .  S
Zr3110     O3111   2.433       .  S
Zr3110     O3112   2.436       .  S
Zr3110     O3116   2.378       .  S
Zr3110     O3115   2.359       .  S
Zr3110     O3120   2.393       .  S
Zr3110     O3118   2.341       .  S
O3111      H3127   0.990       .  S
O3112      H3126   0.990       .  S
O3112      H3136   0.990       .  S
Zr3113     O3116   2.392       .  S
Zr3113     O3118   2.390       .  S
Zr3113     O3119   2.406       .  S
Zr3114     O3115   2.356       .  S
Zr3114     O3117   2.347       .  S
Zr3114     O3120   2.381       .  S
O3115      H3123   0.957       .  S
O3118      H3122   0.964       .  S
O3119      H3124   0.964       .  S
C3137      C3138   1.420       .  A
C3137      C3142   1.408       .  A
C3138      C3139   1.413       .  A
C3138      H3147   1.076       .  S
C3139      C3140   1.405       .  A
C3139      S3143   1.795       .  S
C3140      C3141   1.420       .  A
C3141      C3142   1.411       .  A
C3141      H3148   1.076       .  S
C3142      S3144   1.802       .  S
S3143      H3146   1.406       .  S
S3144      H3145   1.406       .  S
C3149      C3150   1.427       .  A
C3149      C3154   1.403       .  A
C3150      C3151   1.403       .  A
C3150      H3159   1.083       .  S
C3151      C3152   1.402       .  A
C3151      S3155   1.801       .  S
C3152      C3153   1.426       .  A
C3153      C3154   1.410       .  A
C3153      H3160   1.078       .  S
C3154      S3156   1.802       .  S
S3155      H3158   1.404       .  S
S3156      H3157   1.405       .  S
C3161      C3162   1.406   1_655  A
C3161      C3166   1.414   1_655  A
C3162      H3171   1.084   1_455  S
C3163      C3164   1.414       .  A
C3163      S3167   1.804       .  S
C3164      C3165   1.406       .  A
C3165      H3172   1.084       .  S
C3166      S3168   1.802       .  S
S3167      H3170   1.406       .  S
S3168      H3169   1.406   1_455  S
C3173      C3174   1.401       .  A
C3173      C3178   1.410       .  A
C3174      C3175   1.390       .  A
C3174      H3183   1.085       .  S
C3175      C3176   1.408       .  A
C3175      S3179   1.804       .  S
C3176      C3177   1.401       .  A
C3177      C3178   1.393       .  A
C3177      H3184   1.085       .  S
C3178      S3180   1.803       .  S
S3179      H3182   1.406       .  S
S3180      H3181   1.406       .  S
C3185      C3186   1.401       .  A
C3185      C3190   1.409       .  A
C3186      C3187   1.396       .  A
C3186      H3195   1.083       .  S
C3187      C3188   1.412       .  A
C3187      S3191   1.807       .  S
C3188      C3189   1.399       .  A
C3189      C3190   1.392       .  A
C3189      H3196   1.085       .  S
C3190      S3192   1.800       .  S
S3191      H3194   1.407       .  S
S3192      H3193   1.407       .  S
C3197      C3198   1.415       .  A
C3197      C3202   1.415       .  A
C3198      C3199   1.410       .  A
C3198      H3207   1.079       .  S
C3199      C3200   1.412       .  A
C3199      S3203   1.803       .  S
C3200      C3201   1.416       .  A
C3201      C3202   1.416       .  A
C3201      H3208   1.084       .  S
C3202      S3204   1.801       .  S
S3203      H3206   1.406       .  S
S3204      H3205   1.407       .  S
C3209      C3210   1.430       .  A
C3209      C3214   1.407       .  A
C3210      C3211   1.431       .  A
C3210      H3219   1.083       .  S
C3211      C3212   1.417       .  A
C3211      S3215   1.797       .  S
C3212      C3213   1.438       .  A
C3213      C3214   1.420       .  A
C3213      H3220   1.082       .  S
C3214      S3216   1.801       .  S
S3215      H3218   1.405       .  S
S3216      H3217   1.406       .  S
C3221      C3222   1.418       .  A
C3221      C3226   1.400       .  A
C3222      C3223   1.425       .  A
C3222      H3231   1.083       .  S
C3223      C3224   1.415       .  A
C3223      S3227   1.798       .  S
C3224      C3225   1.411       .  A
C3225      C3226   1.386       .  A
C3225      H3232   1.071       .  S
C3226      S3228   1.803       .  S
S3227      H3230   1.405       .  S
S3228      H3229   1.406       .  S
C3233      C3234   1.405       .  A
C3233      C3238   1.405   1_655  A
C3234      C3235   1.404       .  A
C3234      H3243   1.065       .  S
C3235      C3236   1.410   1_655  A
C3235      S3239   1.801       .  S
C3236      C3237   1.410       .  A
C3237      C3238   1.403       .  A
C3237      H3244   1.077       .  S
C3238      S3240   1.799       .  S
S3239      H3242   1.399       .  S
S3240      H3241   1.407       .  S
C3245      C3246   1.410       .  A
C3245      C3250   1.399       .  A
C3246      C3247   1.399       .  A
C3246      H3255   1.084   1_655  S
C3247      C3248   1.402       .  A
C3247      S3251   1.801       .  S
C3248      C3249   1.410       .  A
C3249      C3250   1.396       .  A
C3249      H3256   1.074       .  S
C3250      S3252   1.803       .  S
S3251      H3254   1.407       .  S
S3252      H3253   1.404       .  S
C3257      C3258   1.392       .  A
C3257      C3262   1.427       .  A
C3258      C3259   1.400       .  A
C3258      H3267   1.083       .  S
C3259      C3260   1.423       .  A
C3259      S3263   1.805       .  S
C3260      C3261   1.394       .  A
C3261      C3262   1.410       .  A
C3261      H3268   1.082       .  S
C3262      S3264   1.799       .  S
S3263      H3266   1.407       .  S
S3264      H3265   1.407       .  S
C3269      C3270   1.410       .  A
C3269      C3274   1.401       .  A
C3270      C3271   1.401       .  A
C3270      H3279   1.084       .  S
C3271      C3272   1.405       .  A
C3271      S3275   1.798       .  S
C3272      C3273   1.413       .  A
C3273      C3274   1.395       .  A
C3273      H3280   1.080       .  S
C3274      S3276   1.803       .  S
S3275      H3278   1.405       .  S
S3276      H3277   1.405       .  S
C3281      C3282   1.400       .  A
C3281      C3286   1.409       .  A
C3282      C3283   1.402       .  A
C3282      H3291   1.075       .  S
C3283      C3284   1.421       .  A
C3283      S3287   1.808       .  S
C3284      C3285   1.418       .  A
C3285      C3286   1.415       .  A
C3285      H3292   1.082       .  S
C3286      S3288   1.796       .  S
S3287      H3290   1.407       .  S
S3288      H3289   1.406       .  S
C3293      C3294   1.403       .  A
C3293      C3298   1.429       .  A
C3294      C3295   1.410       .  A
C3294      H3303   1.082       .  S
C3295      C3296   1.417       .  A
C3295      S3299   1.795       .  S
C3296      C3297   1.396       .  A
C3297      C3298   1.394       .  A
C3297      H3304   1.084       .  S
C3298      S3300   1.815       .  S
S3299      H3302   1.407       .  S
S3300      H3301   1.407       .  S
C3305      C3306   1.393       .  A
C3305      C3310   1.433       .  A
C3306      C3307   1.393       .  A
C3306      H3315   1.084       .  S
C3307      C3308   1.411       .  A
C3307      S3311   1.774       .  S
C3308      C3309   1.393       .  A
C3309      C3310   1.394       .  A
C3309      H3316   1.084       .  S
C3310      S3312   1.814       .  S
S3311      H3314   1.401       .  S
S3312      H3313   1.407       .  S
C3317      C3318   1.414       .  A
C3317      C3322   1.404       .  A
C3318      C3319   1.403       .  A
C3318      H3327   1.072       .  S
C3319      C3320   1.401       .  A
C3319      S3323   1.799       .  S
C3320      C3321   1.414       .  A
C3321      C3322   1.402       .  A
C3321      H3328   1.084       .  S
C3322      S3324   1.801       .  S
S3323      H3326   1.406       .  S
S3324      H3325   1.407       .  S
C3329      C3330   1.403       .  A
C3329      C3334   1.411       .  A
C3330      C3331   1.401       .  A
C3330      H3339   1.083       .  S
C3331      C3332   1.407       .  A
C3331      S3335   1.803       .  S
C3332      C3333   1.387       .  A
C3333      C3334   1.371       .  A
S3335      H3338   1.406       .  S
S3336      H3337   1.408       .  S
C3341      C3342   1.389       .  A
C3342      C3343   1.390       .  A
C3342      H3351   1.084       .  S
C3343      C3344   1.421       .  A
C3343      S3347   1.810       .  S
C3345      C3346   1.397       .  A
C3345      H3352   1.083       .  S
C3346      S3348   1.807       .  S
S3347      H3350   1.407       .  S
S3348      H3349   1.407       .  S
C3353      C3354   1.402       .  A
C3353      C3358   1.432       .  A
C3354      C3355   1.407       .  A
C3354      H3363   1.082       .  S
C3355      C3356   1.425       .  A
C3355      S3359   1.802       .  S
C3356      C3357   1.402       .  A
C3357      C3358   1.418       .  A
C3357      H3364   1.084       .  S
C3358      S3360   1.798       .  S
S3359      H3362   1.408       .  S
S3360      H3361   1.396       .  S
C3365      C3366   1.411       .  A
C3365      C3370   1.407       .  A
C3366      C3367   1.411       .  A
C3366      H3375   1.084       .  S
C3367      C3368   1.413       .  A
C3367      S3371   1.794       .  S
C3368      C3369   1.409       .  A
C3369      C3370   1.395       .  A
C3369      H3376   1.085       .  S
C3370      S3372   1.797       .  S
S3372      H3373   1.405       .  S
C3377      C3378   1.415       .  A
C3377      C3382   1.416       .  A
C3378      C3379   1.404       .  A
C3378      H3387   1.083       .  S
C3379      C3380   1.411       .  A
C3379      S3383   1.802       .  S
C3380      C3381   1.421       .  A
C3381      C3382   1.425       .  A
C3381      H3388   1.083       .  S
C3382      S3384   1.799       .  S
S3383      H3386   1.406       .  S
S3384      H3385   1.405       .  S
C3389      C3390   1.405       .  A
C3389      C3394   1.427       .  A
C3390      C3391   1.413       .  A
C3390      H3399   1.083       .  S
C3391      C3392   1.418       .  A
C3391      S3395   1.803       .  S
C3392      C3393   1.391       .  A
C3393      C3394   1.395       .  A
C3393      H3400   1.084       .  S
C3394      S3396   1.815       .  S
S3395      H3398   1.406       .  S
S3396      H3397   1.407       .  S
C3401      C3402   1.407       .  A
C3401      C3406   1.423   1_545  A
C3402      C3403   1.397   1_545  A
C3403      C3404   1.417       .  A
C3404      C3405   1.406       .  A
C3405      C3406   1.411       .  A
C3405      H3412   1.084       .  S
C3406      S3408   1.799       .  S
S3407      H3410   1.407       .  S
S3408      H3409   1.408   1_565  S
C3413      C3414   1.410       .  A
C3413      C3418   1.413       .  A
C3414      C3415   1.406       .  A
C3414      H3423   1.084       .  S
C3415      C3416   1.414       .  A
C3415      S3419   1.804       .  S
C3416      C3417   1.411       .  A
C3417      C3418   1.410       .  A
S3419      H3422   1.407       .  S
S3420      H3421   1.406       .  S
C3425      C3426   1.407       .  A
C3425      C3430   1.402       .  A
C3426      C3427   1.397       .  A
C3426      H3435   1.084       .  S
C3427      C3428   1.405       .  A
C3427      S3431   1.805       .  S
C3428      C3429   1.406       .  A
C3429      C3430   1.385       .  A
C3429      H3436   1.084       .  S
C3430      S3432   1.803       .  S
S3431      H3434   1.403       .  S
S3432      H3433   1.399       .  S
C3437      C3438   1.311       .  A
C3437      C3442   1.399       .  A
C3438      C3439   1.368       .  A
C3438      H3447   1.033       .  S
C3439      C3440   1.389       .  A
C3439      S3443   2.237       .  S
C3440      C3441   1.434       .  A
C3441      C3442   1.430       .  A
C3441      H3448   1.081       .  S
C3442      S3444   1.773       .  S
S3443      H3446   1.241       .  S
S3444      H3445   1.408       .  S
C3449      C3450   1.390       .  A
C3449      C3454   1.406       .  A
C3450      C3451   1.388       .  A
C3450      H3459   1.084       .  S
C3451      C3452   1.426       .  A
C3451      S3455   1.812       .  S
C3452      C3453   1.404       .  A
C3453      C3454   1.389       .  A
C3453      H3460   1.084       .  S
C3454      S3456   1.804       .  S
S3455      H3458   1.407       .  S
S3456      H3457   1.401       .  S
C3461      C3462   1.413       .  A
C3461      C3466   1.414       .  A
C3462      C3463   1.390       .  A
C3462      H3471   1.070       .  S
C3463      C3464   1.396       .  A
C3463      S3467   1.810       .  S
C3464      C3465   1.415       .  A
C3465      C3466   1.420       .  A
C3465      H3472   1.082       .  S
C3466      S3468   1.799       .  S
S3467      H3470   1.399       .  S
S3468      H3469   1.404       .  S
C3474      C3475   1.405   1_655  A
C3474      H3483   1.083       .  S
C3475      C3476   1.415       .  A
C3475      S3479   1.803       .  S
C3478      S3480   1.800   1_554  S
S3479      H3482   1.408       .  S
S3480      H3481   1.408   1_455  S
C3485      C3486   1.398       .  A
C3485      C3490   1.417       .  A
C3486      C3487   1.402       .  A
C3486      H3495   1.083       .  S
C3487      C3488   1.411       .  A
C3487      S3491   1.796       .  S
C3488      C3489   1.396       .  A
C3489      C3490   1.397       .  A
S3491      H3494   1.407       .  S
S3492      H3493   1.405       .  S
C3497      C3502   1.410   1_554  A
C3498      C3499   1.405       .  A
C3498      H3507   1.084       .  S
C3499      C3500   1.417       .  A
C3499      S3503   1.801       .  S
C3501      C3502   1.395       .  A
C3501      H3508   1.085       .  S
C3502      S3504   1.796       .  S
S3503      H3506   1.399       .  S
S3504      H3505   1.403       .  S
C3509      C3510   1.409   1_554  A
C3510      C3511   1.396       .  A
C3510      H3519   1.083       .  S
C3511      C3512   1.411   1_556  A
C3511      S3515   1.805       .  S
C3513      C3514   1.402       .  A
C3513      H3520   1.083       .  S
C3514      S3516   1.810       .  S
S3515      H3518   1.408       .  S
S3516      H3517   1.407       .  S
