geometry optimzed in LAMMPS
_audit_creation_date              2020-11-30 
_audit_creation_method            'lammps2cif' 
_symmetry_space_group_name_H-M    'P1' 
_symmetry_Int_Tables_number       1 
_symmetry_cell_setting            triclinic 
loop_ 
_symmetry_equiv_pos_as_xyz 
  x,y,z 
_cell_length_a                    58.83392597 
_cell_length_b                    58.61463885348859 
_cell_length_c                    65.07038446387735 
_cell_angle_alpha                 90.07902966547317 
_cell_angle_beta                  90.08603059422634 
_cell_angle_gamma                 89.93266824594254 
loop_ 
_atom_site_label 
_atom_site_type_symbol 
_atom_site_fract_x 
_atom_site_fract_y 
_atom_site_fract_z 
_atom_site_charge 
N1          N  0.00838116  0.68506012  0.58552299    -0.26800
N2          N  0.00615532  0.68474668  0.60574147    -0.34600
C3          C  0.00154910  0.70595015  0.61244485     0.01600
C4          C  0.00093417  0.72034059  0.59564499     0.07600
C5          C  0.00525366  0.70654542  0.57883231    -0.05500
H6          H  0.00009551  0.71068945  0.62846256     0.08300
H7          H  0.00709210  0.71190960  0.56302007     0.09500
Cu8        Cu  0.01327332  0.65669016  0.62382484     0.44200
Cu9        Cu  0.01802065  0.65681842  0.56822152     0.42000
Cu10       Cu  0.04134962  0.61027699  0.59812427     0.43900
N11         N  0.02824214  0.62969894  0.63909055    -0.34100
N12         N  0.03954237  0.61322396  0.62970039    -0.28400
C13         C  0.04871667  0.59931401  0.64387752    -0.04500
C14         C  0.04272874  0.60744020  0.66307374     0.07700
C15         C  0.02973626  0.62665320  0.65949935     0.01500
H16         H  0.05890750  0.58442463  0.64042241     0.09200
H17         H  0.02239159  0.63792750  0.67087926     0.08200
N18         N  0.03759669  0.60933461  0.56657486    -0.35600
N19         N  0.02894423  0.62615007  0.55551063    -0.27800
C20         C  0.02822613  0.61962723  0.53566738    -0.03000
C21         C  0.03680481  0.59765997  0.53432147     0.05600
C22         C  0.04255812  0.59170479  0.55416333     0.03700
H23         H  0.02177621  0.63003312  0.52323782     0.08800
H24         H  0.04962997  0.57563057  0.55927353     0.07600
N25         N  0.01735117  0.91473493  0.58673977    -0.26800
N26         N  0.01574478  0.91405852  0.60700969    -0.34600
C27         C  0.01108331  0.89256996  0.61286491     0.01600
C28         C  0.00973249  0.87907136  0.59548871     0.07600
C29         C  0.01377883  0.89365397  0.57918507    -0.05500
H30         H  0.00942553  0.88707347  0.62865792     0.08300
H31         H  0.01450573  0.88924603  0.56305190     0.09500
Cu32       Cu  0.02190319  0.94172589  0.62611336     0.44200
Cu33       Cu  0.02539460  0.94397573  0.57019413     0.42000
Cu34       Cu  0.04409436  0.99169789  0.60077456     0.43900
N35         N  0.03418592  0.97002127  0.64170745    -0.34100
N36         N  0.04329273  0.98779425  0.63234177    -0.28400
C37         C  0.05206887  0.00199339  0.64650020    -0.04500
C38         C  0.04809177  0.99280138  0.66569696     0.07700
C39         C  0.03662222  0.97261011  0.66213902     0.01500
H40         H  0.06106495  0.01760116  0.64301913     0.09200
H41         H  0.03154510  0.96013132  0.67347115     0.08200
N42         N  0.04159785  0.99268833  0.56908256    -0.35600
N43         N  0.03466011  0.97528914  0.55775778    -0.27800
C44         C  0.03455014  0.98162031  0.53787236    -0.03000
C45         C  0.04173212  0.00408777  0.53672878     0.05600
C46         C  0.04604015  0.01053279  0.55677887     0.03700
H47         H  0.02944260  0.97072898  0.52525689     0.08800
H48         H  0.05183138  0.02704156  0.56207970     0.07600
N49         N  0.39817553  0.49286114  0.86749379    -0.26800
N50         N  0.39692950  0.50058356  0.84846192    -0.34600
C51         C  0.37508372  0.50328231  0.84314274     0.01600
C52         C  0.36176550  0.49712635  0.85961468     0.07600
C53         C  0.37688592  0.49056154  0.87489678    -0.05500
H54         H  0.36935081  0.50977402  0.82846062     0.08300
H55         H  0.37278164  0.48491028  0.89026720     0.09500
Cu56       Cu  0.42461829  0.50832981  0.83060741     0.44200
Cu57       Cu  0.42936902  0.48700704  0.88181739     0.42000
Cu58       Cu  0.48030687  0.49647716  0.84922823     0.43900
N59         N  0.45349600  0.51479927  0.81390772    -0.34100
N60         N  0.47421977  0.50949659  0.82010750    -0.28400
C61         C  0.48914850  0.51562525  0.80543002    -0.04500
C62         C  0.47706224  0.52556933  0.78952437     0.07700
C63         C  0.45457194  0.52477725  0.79542281     0.01500
H64         H  0.50740424  0.51378523  0.80660067     0.09200
H65         H  0.44000566  0.53095592  0.78690897     0.08200
N66         N  0.48111902  0.48820256  0.88023839    -0.35600
N67         N  0.46299612  0.48482790  0.89190316    -0.27800
C68         C  0.46985993  0.48154688  0.91141491    -0.03000
C69         C  0.49333233  0.48306925  0.91206720     0.05600
C70         C  0.49988115  0.48723676  0.89205570     0.03700
H71         H  0.45849684  0.47913762  0.92427941     0.08800
H72         H  0.51697972  0.49020607  0.88658009     0.07600
N73         N  0.16985075  0.52711821  0.86962688    -0.26800
N74         N  0.17017200  0.52888575  0.84939930    -0.34600
C75         C  0.19129946  0.52474971  0.84260727     0.01600
C76         C  0.20492864  0.52000093  0.85938329     0.07600
C77         C  0.19080578  0.52156962  0.87629516    -0.05500
H78         H  0.19633376  0.52537524  0.82663784     0.08300
H79         H  0.19550180  0.51940235  0.89225651     0.09500
Cu80       Cu  0.14218843  0.53760914  0.83194575     0.44200
Cu81       Cu  0.14100106  0.53384620  0.88666610     0.42000
Cu82       Cu  0.09213646  0.55705721  0.85771257     0.43900
N83         N  0.11358107  0.54900520  0.81673532    -0.34100
N84         N  0.09540102  0.55713477  0.82612888    -0.28400
C85         C  0.08038891  0.56433408  0.81193101    -0.04500
C86         C  0.08963609  0.56028401  0.79273518     0.07700
C87         C  0.11059950  0.55051915  0.79633555     0.01500
H88         H  0.06403155  0.57187681  0.81535137     0.09200
H89         H  0.12305001  0.54544307  0.78499053     0.08200
N90         N  0.09255786  0.55108798  0.88898780    -0.35600
N91         N  0.11001792  0.54265187  0.89934979    -0.27800
C92         C  0.10401648  0.54002741  0.91910667    -0.03000
C93         C  0.08173203  0.54704183  0.92118154     0.05600
C94         C  0.07497702  0.55394856  0.90186867     0.03700
H95         H  0.11494279  0.53303588  0.93091240     0.08800
H96         H  0.05836833  0.56015701  0.89738442     0.07600
N97         N  0.42200230  0.07345350  0.86409824    -0.26800
N98         N  0.42033470  0.06781042  0.84449934    -0.34600
C99         C  0.39839094  0.06832072  0.83882930     0.01600
C100        C  0.38551255  0.07439138  0.85573699     0.07600
C101        C  0.40100405  0.07747539  0.87154540    -0.05500
H102        H  0.39225572  0.06386182  0.82366825     0.08300
H103        H  0.39728417  0.08200171  0.88731007     0.09500
Cu104      Cu  0.44781405  0.05818956  0.82678091     0.44200
Cu105      Cu  0.45312510  0.07423193  0.87922664     0.42000
Cu106      Cu  0.50426311  0.06018908  0.84865976     0.43900
N107        N  0.47680350  0.04897406  0.81095931    -0.34100
N108        N  0.49770499  0.05049901  0.81833099    -0.28400
C109        C  0.51237744  0.04312457  0.80383072    -0.04500
C110        C  0.49992943  0.03633511  0.78678979     0.07700
C111        C  0.47750703  0.04028650  0.79189215     0.01500
H112        H  0.53059100  0.04188435  0.80586138     0.09200
H113        H  0.46268974  0.03695304  0.78249151     0.08200
N114        N  0.50425579  0.06655989  0.88027417    -0.35600
N115        N  0.48585149  0.07154956  0.89109649    -0.27800
C116        C  0.49153780  0.07319991  0.91107140    -0.03000
C117        C  0.51457192  0.06900096  0.91300894     0.05600
C118        C  0.52210888  0.06491473  0.89319427     0.03700
H119        H  0.47959569  0.07661137  0.92332110     0.08800
H120        H  0.53919686  0.06041960  0.88856951     0.07600
N121        N  0.19195152  0.05778370  0.87054605    -0.26800
N122        N  0.19261555  0.05735898  0.85023456    -0.34600
C123        C  0.21401297  0.06138800  0.84403211     0.01600
C124        C  0.22748448  0.06446798  0.86122214     0.07600
C125        C  0.21297497  0.06206401  0.87780658    -0.05500
H126        H  0.21942804  0.06169329  0.82815297     0.08300
H127        H  0.21735468  0.06310940  0.89393190     0.09500
Cu128      Cu  0.16477458  0.05038558  0.83167144     0.44200
Cu129      Cu  0.16249864  0.05205085  0.88730419     0.42000
Cu130      Cu  0.11281240  0.03547929  0.85773603     0.43900
N131        N  0.13525605  0.04078924  0.81651107    -0.34100
N132        N  0.11646420  0.03471776  0.82616607    -0.28400
C133        C  0.10070527  0.02863448  0.81224452    -0.04500
C134        C  0.10998908  0.03116227  0.79288928     0.07700
C135        C  0.13187747  0.03894253  0.79611988     0.01500
H136        H  0.08370938  0.02298544  0.81598055     0.09200
H137        H  0.14452118  0.04265678  0.78454653     0.08200
N138        N  0.11285874  0.03927513  0.88931263    -0.35600
N139        N  0.13088077  0.04547793  0.90011939    -0.27800
C140        C  0.12500197  0.04709166  0.92003331    -0.03000
C141        C  0.10220989  0.04163514  0.92176250     0.05600
C142        C  0.09506041  0.03675299  0.90202910     0.03700
H143        H  0.13642713  0.05214804  0.93225123     0.08800
H144        H  0.07808177  0.03209020  0.89719227     0.07600
N145        N  0.53363496  0.66101472  0.58053256    -0.26800
N146        N  0.52319784  0.66167977  0.59847309    -0.34600
C147        C  0.51813530  0.68343243  0.60311102     0.01600
C148        C  0.52577445  0.69711758  0.58727216     0.07600
C149        C  0.53544008  0.68236480  0.57316825    -0.05500
H150        H  0.51035656  0.68888799  0.61734845     0.08300
H151        H  0.54395077  0.68687447  0.55901955     0.09500
Cu152      Cu  0.51921131  0.63333922  0.61687895     0.44200
Cu153      Cu  0.54621549  0.63105853  0.56813476     0.42000
Cu154      Cu  0.54728457  0.58079766  0.60137099     0.43900
N155        N  0.52285010  0.60517242  0.63558908    -0.34100
N156        N  0.53412099  0.58643373  0.63059432    -0.28400
C157        C  0.53438826  0.57230329  0.64691831    -0.04500
C158        C  0.52251704  0.58270154  0.66272408     0.07700
C159        C  0.51539891  0.60338927  0.65498783     0.01500
H160        H  0.54211202  0.55554507  0.64706911     0.09200
H161        H  0.50568483  0.61635423  0.66294479     0.08200
N162        N  0.55571666  0.58033173  0.57032184    -0.35600
N163        N  0.55540710  0.59868743  0.55851151    -0.27800
C164        C  0.56026026  0.59260874  0.53911123    -0.03000
C165        C  0.56370791  0.56929765  0.53857937     0.05600
C166        C  0.56074627  0.56202699  0.55862451     0.03700
H167        H  0.56044698  0.60426975  0.52624690     0.08800
H168        H  0.56143749  0.54464665  0.56417424     0.07600
N169        N  0.55610038  0.88962354  0.58222621    -0.26800
N170        N  0.54592338  0.88972433  0.60031466    -0.34600
C171        C  0.53741744  0.86888555  0.60404303     0.01600
C172        C  0.54244826  0.85502018  0.58749156     0.07600
C173        C  0.55425503  0.86869478  0.57387649    -0.05500
H174        H  0.52883648  0.86401693  0.61806071     0.08300
H175        H  0.56159296  0.86368189  0.55931947     0.09500
Cu176      Cu  0.54573364  0.91755036  0.61983452     0.44200
Cu177      Cu  0.57308460  0.91770151  0.57060264     0.42000
Cu178      Cu  0.58096167  0.96557249  0.60568672     0.43900
N179        N  0.55072551  0.94579258  0.63833427    -0.34100
N180        N  0.56468639  0.96273673  0.63387126    -0.28400
C181        C  0.56443708  0.97792667  0.64942386    -0.04500
C182        C  0.54932849  0.97022060  0.66412715     0.07700
C183        C  0.54090804  0.94991004  0.65658130     0.01500
H184        H  0.57377866  0.99381384  0.64959016     0.09200
H185        H  0.52853798  0.93889981  0.66381626     0.08200
N186        N  0.58974027  0.96625499  0.57477125    -0.35600
N187        N  0.58705278  0.94872875  0.56217096    -0.27800
C188        C  0.59206389  0.95531727  0.54293809    -0.03000
C189        C  0.59789243  0.97812478  0.54335753     0.05600
C190        C  0.59632970  0.98454120  0.56379127     0.03700
H191        H  0.59013450  0.94466683  0.52945512     0.08800
H192        H  0.59860445  0.00148189  0.57007721     0.07600
N193        N  0.56468400  0.15609024  0.38060849    -0.26800
N194        N  0.55604099  0.15577513  0.36184022    -0.34600
C195        C  0.54919863  0.17692823  0.35680909     0.01600
C196        C  0.55368324  0.19128523  0.37316475     0.07600
C197        C  0.56345743  0.17751701  0.38805883    -0.05500
H198        H  0.54220844  0.18165607  0.34202532     0.08300
H199        H  0.56992142  0.18277978  0.40289587     0.09500
Cu200      Cu  0.55608519  0.12733266  0.34287853     0.44200
Cu201      Cu  0.57897945  0.12748363  0.39442118     0.42000
Cu202      Cu  0.58506900  0.07729124  0.36154880     0.43900
N203        N  0.56302418  0.09917780  0.32463161    -0.34100
N204        N  0.57439224  0.08114451  0.33123749    -0.28400
C205        C  0.57862483  0.06728289  0.31517958    -0.04500
C206        C  0.56940735  0.07703377  0.29768472     0.07700
C207        C  0.55956399  0.09720197  0.30426120     0.01500
H208        H  0.58847899  0.05171463  0.31603661     0.09200
H209        H  0.55173107  0.11017372  0.29478562     0.08200
N210        N  0.59260763  0.07770877  0.39281654    -0.35600
N211        N  0.59056423  0.09595860  0.40467180    -0.27800
C212        C  0.59498967  0.09005198  0.42425159    -0.03000
C213        C  0.59988019  0.06699248  0.42479731     0.05600
C214        C  0.59831728  0.05971856  0.40458610     0.03700
H215        H  0.59354356  0.10145764  0.43727186     0.08800
H216        H  0.60011624  0.04244273  0.39894361     0.07600
N217        N  0.55591714  0.38631953  0.37380640    -0.26800
N218        N  0.54827798  0.38567411  0.35470289    -0.34600
C219        C  0.54369210  0.36391476  0.34958183     0.01600
C220        C  0.54864149  0.35021481  0.36631514     0.07600
C221        C  0.55633195  0.36497590  0.38139402    -0.05500
H222        H  0.53754407  0.35849649  0.33468157     0.08300
H223        H  0.56205905  0.36051377  0.39667762     0.09500
Cu224      Cu  0.54574567  0.41431284  0.33619753     0.44200
Cu225      Cu  0.56543919  0.41632643  0.38844133     0.42000
Cu226      Cu  0.56437978  0.46823747  0.35766406     0.43900
N227        N  0.54941630  0.44391657  0.31917355    -0.34100
N228        N  0.55694990  0.46344749  0.32674832    -0.28400
C229        C  0.55992169  0.47829193  0.31120613    -0.04500
C230        C  0.55386219  0.46752927  0.29305140     0.07700
C231        C  0.54720025  0.44585332  0.29869850     0.01500
H232        H  0.56671722  0.49532833  0.31294678     0.09200
H233        H  0.54232383  0.43206204  0.28854755     0.08200
N234        N  0.57032674  0.46765805  0.38912867    -0.35600
N235        N  0.57095590  0.44877937  0.40023910    -0.27800
C236        C  0.57376791  0.45437805  0.42013550    -0.03000
C237        C  0.57487165  0.47789427  0.42161355     0.05600
C238        C  0.57269922  0.48575472  0.40168543     0.03700
H239        H  0.57403693  0.44223845  0.43263724     0.08800
H240        H  0.57203164  0.50336487  0.39674740     0.07600
N241        N  0.68952050  0.02797261  0.08270587    -0.26800
N242        N  0.68911329  0.02227357  0.10233814    -0.34600
C243        C  0.71030250  0.01723788  0.10857703     0.01600
C244        C  0.72480674  0.01988312  0.09205867     0.07600
C245        C  0.71108195  0.02665900  0.07587487    -0.05500
H246        H  0.71483953  0.01271542  0.12416423     0.08300
H247        H  0.71644501  0.03094297  0.06045960     0.09500
Cu248      Cu  0.66023843  0.02390672  0.12028990     0.44200
Cu249      Cu  0.66057728  0.03839561  0.06695487     0.42000
Cu250      Cu  0.60940445  0.04826153  0.09797528     0.43900
N251        N  0.63160715  0.03210541  0.13709824    -0.34100
N252        N  0.61329427  0.04197979  0.12933867    -0.28400
C253        C  0.59899811  0.04715861  0.14484597    -0.04500
C254        C  0.60879266  0.03998607  0.16310992     0.07700
C255        C  0.62940248  0.03049038  0.15757661     0.01500
H256        H  0.58287671  0.05582250  0.14300031     0.09200
H257        H  0.64236023  0.02382498  0.16774586     0.08200
N258        N  0.61052549  0.05098774  0.06601317    -0.35600
N259        N  0.62905962  0.04740834  0.05494751    -0.27800
C260        C  0.62389114  0.04964894  0.03491328    -0.03000
C261        C  0.60102268  0.05484514  0.03320777     0.05600
C262        C  0.59308312  0.05559996  0.05321535     0.03700
H263        H  0.63587566  0.04723868  0.02250902     0.08800
H264        H  0.57580262  0.05882165  0.05810265     0.07600
N265        N  0.91877181  0.03069387  0.08666798    -0.26800
N266        N  0.91750335  0.02888647  0.10687069    -0.34600
C267        C  0.89593172  0.02413257  0.11213988     0.01600
C268        C  0.88305599  0.02303623  0.09437973     0.07600
C269        C  0.89806090  0.02725218  0.07850857    -0.05500
H270        H  0.88993637  0.02239586  0.12776771     0.08300
H271        H  0.89420601  0.02818349  0.06227301     0.09500
Cu272      Cu  0.94480162  0.03501636  0.12620335     0.44200
Cu273      Cu  0.94843791  0.03832515  0.07121762     0.42000
Cu274      Cu  0.99788533  0.05198338  0.10173989     0.43900
N275        N  0.97340516  0.04576564  0.14202535    -0.34100
N276        N  0.99240199  0.05264137  0.13313424    -0.28400
C277        C  0.00678899  0.06028428  0.14765164    -0.04500
C278        C  0.99639800  0.05788633  0.16652457     0.07700
C279        C  0.97530289  0.04859321  0.16244980     0.01500
H280        H  0.02346242  0.06728355  0.14464759     0.09200
H281        H  0.96196625  0.04497500  0.17339618     0.08200
N282        N  0.99841597  0.04912967  0.07004834    -0.35600
N283        N  0.98025109  0.04416334  0.05894229    -0.27800
C284        C  0.98622126  0.04264750  0.03907167    -0.03000
C285        C  0.00926167  0.04687385  0.03763183     0.05600
C286        C  0.01646989  0.05096961  0.05751692     0.03700
H287        H  0.97467787  0.03838347  0.02670001     0.08800
H288        H  0.03363390  0.05453100  0.06256919     0.07600
N289        N  0.08716994  0.41720793  0.36858172    -0.26800
N290        N  0.08790935  0.41704138  0.34825570    -0.34600
C291        C  0.09276472  0.39580529  0.34177611     0.01600
C292        C  0.09509620  0.38192736  0.35880930     0.07600
C293        C  0.09153740  0.39604378  0.37553448    -0.05500
H294        H  0.09315673  0.39063276  0.32581715     0.08300
H295        H  0.09092738  0.39105660  0.39152747     0.09500
Cu296      Cu  0.07851502  0.44422152  0.32971287     0.44200
Cu297      Cu  0.07741681  0.44524222  0.38602858     0.42000
Cu298      Cu  0.05114869  0.49007748  0.35614528     0.43900
N299        N  0.06169671  0.47040391  0.31459657    -0.34100
N300        N  0.05067616  0.48668424  0.32451335    -0.28400
C301        C  0.03965223  0.49985929  0.31085642    -0.04500
C302        C  0.04410550  0.49156486  0.29137285     0.07700
C303        C  0.05821181  0.47294237  0.29427430     0.01500
H304        H  0.02911735  0.51433216  0.31485984     0.09200
H305        H  0.06476701  0.46159572  0.28256317     0.08200
N306        N  0.05535576  0.49153813  0.38767591    -0.35600
N307        N  0.06498341  0.47526671  0.39874107    -0.27800
C308        C  0.06539269  0.48183213  0.41857467    -0.03000
C309        C  0.05561296  0.50328602  0.41992459     0.05600
C310        C  0.04946797  0.50888526  0.40008827     0.03700
H311        H  0.07248489  0.47182864  0.43098905     0.08800
H312        H  0.04146073  0.52451644  0.39498899     0.07600
N313        N  0.07944407  0.18804380  0.37183258    -0.26800
N314        N  0.08145759  0.18826973  0.35159894    -0.34600
C315        C  0.08636089  0.20953291  0.34536792     0.01600
C316        C  0.08752398  0.22340728  0.36247063     0.07600
C317        C  0.08307423  0.20927588  0.37903074    -0.05500
H318        H  0.08836583  0.21460041  0.32949106     0.08300
H319        H  0.08208584  0.21410114  0.39505526     0.09500
Cu320      Cu  0.07569471  0.16038719  0.33298512     0.44200
Cu321      Cu  0.07101648  0.15893341  0.38844047     0.42000
Cu322      Cu  0.05540878  0.10953436  0.35750720     0.43900
N323        N  0.06414772  0.13233327  0.31699190    -0.34100
N324        N  0.05579427  0.11395478  0.32595383    -0.28400
C325        C  0.04752875  0.09987916  0.31143283    -0.04500
C326        C  0.05109084  0.10986699  0.29249215     0.07700
C327        C  0.06170804  0.13038342  0.29654219     0.01500
H328        H  0.03922454  0.08377254  0.31446938     0.09200
H329        H  0.06636359  0.14340932  0.28556780     0.08200
N330        N  0.05731897  0.10926539  0.38928646    -0.35600
N331        N  0.06289343  0.12715397  0.40063712    -0.27800
C332        C  0.06266820  0.12103047  0.42057651    -0.03000
C333        C  0.05668511  0.09822096  0.42174069     0.05600
C334        C  0.05343630  0.09134234  0.40164951     0.03700
H335        H  0.06667431  0.13232915  0.43322691     0.08800
H336        H  0.04868071  0.07449674  0.39636401     0.07600
N337        N  0.67123004  0.52616222  0.07874225    -0.26800
N338        N  0.67093957  0.52908436  0.09888439    -0.34600
C339        C  0.69173841  0.53534163  0.10525070     0.01600
C340        C  0.70580846  0.53642843  0.08832628     0.07600
C341        C  0.69227768  0.53059334  0.07171605    -0.05500
H342        H  0.69645584  0.53809089  0.12114070     0.08300
H343        H  0.69749208  0.52881934  0.05585920     0.09500
Cu344      Cu  0.64306235  0.52235543  0.11717377     0.44200
Cu345      Cu  0.64343709  0.51421656  0.06233897     0.42000
Cu346      Cu  0.59526859  0.49461971  0.09306318     0.43900
N347        N  0.61481985  0.51129604  0.13314180    -0.34100
N348        N  0.59769991  0.50015735  0.12460607    -0.28400
C349        C  0.58297184  0.49402014  0.13943485    -0.04500
C350        C  0.59119030  0.50197904  0.15807058     0.07700
C351        C  0.61132923  0.51287233  0.15349270     0.01500
H352        H  0.56746291  0.48454292  0.13682860     0.09200
H353        H  0.62298065  0.52074527  0.16424378     0.08200
N354        N  0.59614561  0.49415940  0.06106240    -0.35600
N355        N  0.61360553  0.50124445  0.04998140    -0.27800
C356        C  0.60824716  0.49973108  0.02991562    -0.03000
C357        C  0.58632051  0.49144264  0.02828506     0.05600
C358        C  0.57918181  0.48807817  0.04829415     0.03700
H359        H  0.61925196  0.50501599  0.01750439     0.08800
H360        H  0.56263531  0.48222892  0.05323920     0.07600
N361        N  0.89910079  0.55496028  0.08783195    -0.26800
N362        N  0.89824522  0.55591890  0.10813065    -0.34600
C363        C  0.87634164  0.55630859  0.11400161     0.01600
C364        C  0.86287871  0.55547069  0.09655522     0.07600
C365        C  0.87783862  0.55469735  0.08026873    -0.05500
H366        H  0.87070456  0.55629861  0.12981565     0.08300
H367        H  0.87361897  0.55323238  0.06412997     0.09500
Cu368      Cu  0.92658787  0.55398237  0.12719131     0.44200
Cu369      Cu  0.92869873  0.55187331  0.07108594     0.42000
Cu370      Cu  0.97873758  0.54024312  0.10098236     0.43900
N371        N  0.95685525  0.54666024  0.14236571    -0.34100
N372        N  0.97568709  0.54092798  0.13257287    -0.28400
C373        C  0.99174786  0.53527015  0.14634444    -0.04500
C374        C  0.98264923  0.53763450  0.16579082     0.07700
C375        C  0.96053089  0.54498151  0.16274385     0.01500
H376        H  0.00866159  0.52948648  0.14241742     0.09200
H377        H  0.94779131  0.54797262  0.17441589     0.08200
N378        N  0.97865793  0.54203846  0.06931791    -0.35600
N379        N  0.96033530  0.54662869  0.05830632    -0.27800
C380        C  0.96603073  0.54741216  0.03833500    -0.03000
C381        C  0.98906115  0.54307451  0.03680873     0.05600
C382        C  0.99653591  0.53970797  0.05668309     0.03700
H383        H  0.95430313  0.55107675  0.02594995     0.08800
H384        H  0.01375658  0.53625504  0.06165375     0.07600
C385        C  0.76285616  0.54611230  0.10058438     0.30300
C386        C  0.78146384  0.54929581  0.11372166    -0.36000
C387        C  0.80270272  0.55095321  0.10419727     0.16300
C388        C  0.80549232  0.54958255  0.08317262     0.22100
C389        C  0.78684243  0.54638504  0.06999487    -0.34200
C390        C  0.76554624  0.54470981  0.07954580     0.16200
O391        O  0.74155556  0.54372143  0.10630039    -0.26200
C392        C  0.73038550  0.54072522  0.08873633     0.06000
C393        C  0.74441402  0.54119309  0.07153791    -0.31100
O394        O  0.82697767  0.55123900  0.07766018    -0.24500
C395        C  0.83801924  0.55371001  0.09539476    -0.02900
C396        C  0.82377954  0.55366097  0.11240861    -0.17300
H397        H  0.77952725  0.55023054  0.13024209     0.20700
H398        H  0.78882008  0.54510992  0.05349716     0.19100
H399        H  0.73978232  0.53895561  0.05555970     0.19000
H400        H  0.82829947  0.55513341  0.12848342     0.14900
C401        C  0.99882586  0.52824992  0.21697284     0.30300
C402        C  0.99677731  0.52907828  0.23843550    -0.36000
C403        C  0.01339281  0.51716934  0.24958689     0.16300
C404        C  0.03070834  0.50506832  0.24028819     0.22100
C405        C  0.03295579  0.50452430  0.21883472    -0.34200
C406        C  0.01646442  0.51661416  0.20769144     0.16200
O407        O  0.98470843  0.53741862  0.20354272    -0.26200
C408        C  0.99356375  0.53177122  0.18543396     0.06000
C409        C  0.01339620  0.51894471  0.18708138    -0.31100
O410        O  0.04382881  0.49445408  0.25367713    -0.22900
C411        C  0.03495000  0.50006623  0.27178753    -0.02900
C412        C  0.01604404  0.51422786  0.27018488    -0.17300
H413        H  0.98302036  0.53811192  0.24590960     0.20700
H414        H  0.04643498  0.49509030  0.21134658     0.19100
H415        H  0.02364393  0.51175633  0.17488079     0.19000
H416        H  0.00549493  0.52094294  0.28239431     0.14900
C417        C  0.09581273  0.28128368  0.35154993     0.30300
C418        C  0.09799629  0.30058872  0.33899100    -0.36000
C419        C  0.09835647  0.32167147  0.34918864     0.16300
C420        C  0.09677944  0.32361851  0.37028485     0.22100
C421        C  0.09481801  0.30430324  0.38284301    -0.34200
C422        C  0.09433738  0.28323644  0.37264948     0.16200
O423        O  0.09397673  0.25999800  0.34523132    -0.26200
C424        C  0.09130036  0.24817852  0.36250492     0.06000
C425        C  0.09144726  0.26173395  0.38005111    -0.31100
O426        O  0.09612106  0.34501938  0.37648330    -0.22900
C427        C  0.09730707  0.35694946  0.35914787    -0.02900
C428        C  0.09883641  0.34331985  0.34167564    -0.17300
H429        H  0.09873285  0.29929759  0.32240898     0.20700
H430        H  0.09313510  0.30564740  0.39936199     0.19100
H431        H  0.08918098  0.25658328  0.39587912     0.19000
H432        H  0.09932031  0.34855879  0.32574094     0.14900
C433        C  0.02462758  0.08264146  0.20825090     0.30300
C434        C  0.03992994  0.09732285  0.21815143    -0.36000
C435        C  0.03939582  0.09701900  0.23967217     0.16300
C436        C  0.02502402  0.08302050  0.25068736     0.22100
C437        C  0.00956679  0.06852190  0.24078877    -0.34200
C438        C  0.00989556  0.06904030  0.21927906     0.16200
O439        O  0.02208371  0.08028365  0.18824864    -0.26200
C440        C  0.00534839  0.06518053  0.18649083     0.06000
C441        C  0.99705122  0.05763395  0.20526749    -0.31100
O442        O  0.02747431  0.08541847  0.27068904    -0.22900
C443        C  0.04344616  0.10131449  0.27248640    -0.02900
C444        C  0.05145568  0.10922705  0.25371751    -0.17300
H445        H  0.05132707  0.10830904  0.20967808     0.20700
H446        H  0.99799532  0.05772204  0.24926198     0.19100
H447        H  0.98357804  0.04550024  0.20814596     0.19000
H448        H  0.06427888  0.12205936  0.25086522     0.14900
C449        C  0.78339647  0.01922082  0.08222392     0.30300
C450        C  0.80325562  0.02235051  0.07065962    -0.36000
C451        C  0.82380079  0.02008580  0.08142809     0.16300
C452        C  0.82474947  0.01512806  0.10214868     0.22100
C453        C  0.80491950  0.01172216  0.11364464    -0.34200
C454        C  0.78439408  0.01397842  0.10288267     0.16200
O455        O  0.76234845  0.02162082  0.07554574    -0.26200
C456        C  0.74972745  0.01778947  0.09213826     0.06000
C457        C  0.76254670  0.01286060  0.10956144    -0.31100
O458        O  0.84569180  0.01507000  0.10935015    -0.22900
C459        C  0.85833774  0.01992338  0.09301524    -0.02900
C460        C  0.84565237  0.02310087  0.07518435    -0.17300
H461        H  0.80271847  0.02677544  0.05452183     0.20700
H462        H  0.80544365  0.00812564  0.12995207     0.19100
H463        H  0.75667612  0.00959376  0.12503295     0.19000
H464        H  0.85157869  0.02777479  0.06002885     0.14900
C465        C  0.57755797  0.50199046  0.21042513     0.30300
C466        C  0.57974359  0.50852504  0.23109274    -0.36000
C467        C  0.56859226  0.49467289  0.24543821     0.16300
C468        C  0.55622293  0.47566324  0.23981498     0.22100
C469        C  0.55359367  0.46944501  0.21911690    -0.34200
C470        C  0.56465983  0.48334917  0.20476615     0.16200
O471        O  0.58812244  0.51130728  0.19469497    -0.26200
C472        C  0.58167149  0.49867172  0.17871937     0.06000
C473        C  0.56691238  0.48113785  0.18402073    -0.31100
O474        O  0.54890844  0.46403051  0.25579647    -0.22900
C475        C  0.55648864  0.47583416  0.27187784    -0.02900
C476        C  0.56871216  0.49518428  0.26637567    -0.17300
H477        H  0.59013348  0.52286684  0.23571725     0.20700
H478        H  0.54429441  0.45433395  0.21458297     0.19100
H479        H  0.55995819  0.46793753  0.17422200     0.19000
H480        H  0.57744081  0.50713957  0.27630724     0.14900
C481        C  0.58256861  0.05715846  0.20907557     0.30300
C482        C  0.56857838  0.07059244  0.22173981    -0.36000
C483        C  0.57142135  0.06762146  0.24301575     0.16300
C484        C  0.58674209  0.05227214  0.25123279     0.22100
C485        C  0.60061338  0.03879958  0.23859889    -0.34200
C486        C  0.59799518  0.04198993  0.21739090     0.16200
O487        O  0.58377488  0.05807188  0.18881738    -0.26200
C488        C  0.60029311  0.04339670  0.18417578     0.06000
C489        C  0.60969340  0.03288878  0.20135725    -0.31100
O490        O  0.58747630  0.05305209  0.27146709    -0.22900
C491        C  0.57253600  0.06920328  0.27635604    -0.02900
C492        C  0.56196188  0.07884087  0.25927116    -0.17300
H493        H  0.55683647  0.08299603  0.21546634     0.20700
H494        H  0.61311111  0.02716853  0.24488505     0.19100
H495        H  0.62355420  0.02075307  0.20199318     0.19000
H496        H  0.54968861  0.09260034  0.25885771     0.14900
C497        C  0.54984217  0.29219584  0.37952027     0.30300
C498        C  0.55431788  0.27320382  0.39202959    -0.36000
C499        C  0.55145270  0.25175876  0.38276901     0.16300
C500        C  0.54449688  0.24920167  0.36263008     0.22100
C501        C  0.53981800  0.26817305  0.35018896    -0.34200
C502        C  0.54282191  0.28959665  0.35940498     0.16200
O503        O  0.55249625  0.31379768  0.38469912    -0.26200
C504        C  0.54708162  0.32518606  0.36769357     0.06000
C505        C  0.54085125  0.31099766  0.35147762    -0.31100
O506        O  0.54391122  0.22766504  0.35681471    -0.22900
C507        C  0.55061343  0.21622336  0.37340519    -0.02900
C508        C  0.55546832  0.23032792  0.39006657    -0.17300
H509        H  0.56017855  0.27503018  0.40772148     0.20700
H510        H  0.53473282  0.26635622  0.33427606     0.19100
H511        H  0.53613814  0.31571469  0.33597007     0.19000
H512        H  0.56163627  0.22555037  0.40513763     0.14900
C513        C  0.60395266  0.04368813  0.47432105     0.30300
C514        C  0.60338934  0.04382637  0.49590600    -0.36000
C515        C  0.60354035  0.02236393  0.50545473     0.16300
C516        C  0.60411720  0.00219457  0.49449164     0.22100
C517        C  0.60492174  0.00206489  0.47295869    -0.34200
C518        C  0.60483587  0.02348722  0.46343023     0.16200
O519        O  0.60269090  0.06168383  0.46221023    -0.26200
C520        C  0.60287139  0.05288536  0.44332939     0.06000
C521        C  0.60429992  0.02919557  0.44316950    -0.31100
O522        O  0.60279178  0.98409925  0.50640423    -0.22900
C523        C  0.60150697  0.99271334  0.52528482    -0.02900
C524        C  0.60199872  0.01645712  0.52566885    -0.17300
H525        H  0.60233718  0.05953590  0.50461615     0.20700
H526        H  0.60502360  0.98633547  0.46422601     0.19100
H527        H  0.60407613  0.01779079  0.43007884     0.19000
H528        H  0.60048915  0.02769899  0.53880493     0.14900
C529        C  0.57444314  0.52051008  0.45940395     0.30300
C530        C  0.57266838  0.54282669  0.46698872    -0.36000
C531        C  0.57143897  0.54499402  0.48840150     0.16300
C532        C  0.57194553  0.52652038  0.50152463     0.22100
C533        C  0.57391380  0.50417017  0.49393468    -0.34200
C534        C  0.57510454  0.50198929  0.47247445     0.16200
O535        O  0.57476234  0.51452308  0.43987879    -0.26200
C536        C  0.57567695  0.49185992  0.44040256     0.06000
C537        C  0.57601766  0.48310637  0.46027935    -0.31100
O538        O  0.56964444  0.53253050  0.52097285    -0.22900
C539        C  0.56769874  0.55514613  0.52023788    -0.02900
C540        C  0.56875824  0.56380348  0.50037257    -0.17300
H541        H  0.57182012  0.55745058  0.45687990     0.20700
H542        H  0.57403004  0.48949998  0.50401371     0.19100
H543        H  0.57622153  0.46542713  0.46504473     0.19000
H544        H  0.56722945  0.58134714  0.49539905     0.14900
C545        C  0.53262305  0.75522978  0.57651937     0.30300
C546        C  0.54002900  0.77431319  0.56539978    -0.36000
C547        C  0.53753454  0.79546409  0.57524539     0.16300
C548        C  0.52832274  0.79766129  0.59465120     0.22100
C549        C  0.52076137  0.77862797  0.60568444    -0.34200
C550        C  0.52329532  0.75751043  0.59586908     0.16200
O551        O  0.53433246  0.73373539  0.57072790    -0.26200
C552        C  0.52591252  0.72215642  0.58655117     0.06000
C553        C  0.51871118  0.73607265  0.60259529    -0.31100
O554        O  0.52845664  0.81888398  0.60128359    -0.22900
C555        C  0.53786796  0.83046702  0.58595192    -0.02900
C556        C  0.54381112  0.81680917  0.56929827    -0.17300
H557        H  0.54766386  0.77272941  0.55034076     0.20700
H558        H  0.51383976  0.78013388  0.62103113     0.19100
H559        H  0.51178840  0.73111258  0.61732401     0.19000
H560        H  0.55205801  0.82177345  0.55514064     0.14900
C561        C  0.05955176  0.03951096  0.95916039     0.30300
C562        C  0.03749269  0.03637980  0.96677963    -0.36000
C563        C  0.03451560  0.04096981  0.98774701     0.16300
C564        C  0.05203310  0.04805652  0.00036021     0.22100
C565        C  0.07408006  0.05117395  0.99274326    -0.34200
C566        C  0.07705099  0.04663034  0.97177646     0.16200
O567        O  0.06610972  0.03658498  0.93998469    -0.26200
C568        C  0.08808666  0.04189207  0.94034601     0.06000
C569        C  0.09584182  0.04822016  0.95972345    -0.31100
O570        O  0.04546786  0.05120167  0.01949955    -0.22900
C571        C  0.02345384  0.04612240  0.01912345    -0.02900
C572        C  0.01567841  0.03967658  0.99977315    -0.17300
H573        H  0.02362487  0.03085215  0.95703725     0.20700
H574        H  0.08792504  0.05679054  0.00246949     0.19100
H575        H  0.11274942  0.05351007  0.96422030     0.19000
H576        H  0.99871579  0.03457379  0.99526709     0.14900
C577        C  0.56029077  0.06339959  0.99436113     0.30300
C578        C  0.53864542  0.06765749  0.98605818    -0.36000
C579        C  0.53709058  0.06733553  0.96451678     0.16300
C580        C  0.55553265  0.06308075  0.95199311     0.22100
C581        C  0.57716662  0.05889567  0.96028994    -0.34200
C582        C  0.57872785  0.05925166  0.98180684     0.16200
O583        O  0.56561168  0.06256584  0.01407681    -0.26200
C584        C  0.58776649  0.05786173  0.01413454     0.06000
C585        C  0.59680213  0.05565040  0.99447439    -0.31100
O586        O  0.55015830  0.06324422  0.93229136    -0.22900
C587        C  0.52797430  0.06771947  0.93215435    -0.02900
C588        C  0.51894920  0.07045092  0.95178383    -0.17300
H589        H  0.52401658  0.07085990  0.99571234     0.20700
H590        H  0.59174817  0.05546048  0.95064153     0.19100
H591        H  0.61411829  0.05172610  0.99012462     0.19000
H592        H  0.50152762  0.07396808  0.95607089     0.14900
C593        C  0.52883823  0.01705745  0.74281996     0.30300
C594        C  0.54669987  0.01528264  0.72856464    -0.36000
C595        C  0.54241929  0.00163324  0.71120650     0.16300
C596        C  0.52214854  0.99020612  0.70834271     0.22100
C597        C  0.50426124  0.99222553  0.72238259    -0.34200
C598        C  0.50839369  0.00612936  0.73947548     0.16200
O599        O  0.52892829  0.02893802  0.76011010    -0.26200
C600        C  0.50814181  0.02575374  0.76766668     0.06000
C601        C  0.49467728  0.01177188  0.75543337    -0.31100
O602        O  0.52198067  0.97776848  0.69149455    -0.22900
C603        C  0.54226255  0.98150083  0.68321882    -0.02900
C604        C  0.55570613  0.99633236  0.69469578    -0.17300
H605        H  0.56274252  0.02394558  0.73081641     0.20700
H606        H  0.48821846  0.98355795  0.72012638     0.19100
H607        H  0.47731005  0.00643273  0.75800167     0.19000
H608        H  0.57289098  0.00188994  0.69157540     0.14900
C609        C  0.32749636  0.07526434  0.86843896     0.30300
C610        C  0.30833896  0.07380731  0.88126534    -0.36000
C611        C  0.28718778  0.07248182  0.87126086     0.16300
C612        C  0.28509127  0.07273806  0.85012830     0.22100
C613        C  0.30415827  0.07437091  0.83736202    -0.34200
C614        C  0.32523056  0.07548362  0.84732539     0.16200
O615        O  0.34899490  0.07546333  0.87435166    -0.26200
C616        C  0.36054291  0.07567781  0.85675613     0.06000
C617        C  0.34660541  0.07576999  0.83948973    -0.31100
O618        O  0.26391232  0.07032248  0.84394809    -0.22900
C619        C  0.25216819  0.06849367  0.86130050    -0.02900
C620        C  0.26573438  0.06978795  0.87882881    -0.17300
H621        H  0.30985311  0.07315521  0.89783228     0.20700
H622        H  0.30270118  0.07415318  0.82077838     0.19100
H623        H  0.35150682  0.07551208  0.82346652     0.19000
H624        H  0.26062998  0.06834621  0.89474419     0.14900
C625        C  0.03901081  0.54833861  0.95828950     0.30300
C626        C  0.01696467  0.55153147  0.96584347    -0.36000
C627        C  0.01402023  0.54720661  0.98681244     0.16300
C628        C  0.03156264  0.54029926  0.99948776     0.22100
C629        C  0.05359473  0.53699295  0.99190917    -0.34200
C630        C  0.05652604  0.54126739  0.97092375     0.16200
O631        O  0.04560248  0.55145254  0.93919548    -0.26200
C632        C  0.06758428  0.54625232  0.93961910     0.06000
C633        C  0.07535080  0.53978593  0.95893244    -0.31100
O634        O  0.02506294  0.53773420  0.01868397    -0.22900
C635        C  0.00308247  0.54298668  0.01824858    -0.02900
C636        C  0.99524187  0.54895004  0.99882997    -0.17300
H637        H  0.00311892  0.55708174  0.95608083     0.20700
H638        H  0.06747718  0.53159293  0.00169779     0.19100
H639        H  0.09232815  0.53472880  0.96346406     0.19000
H640        H  0.97831617  0.55417880  0.99430003     0.14900
C641        C  0.53706007  0.48566173  0.94876826     0.30300
C642        C  0.55921163  0.48937043  0.95613962    -0.36000
C643        C  0.56200987  0.48818491  0.97754998     0.16300
C644        C  0.54426211  0.48356450  0.99075132     0.22100
C645        C  0.52217284  0.47983383  0.98338382    -0.34200
C646        C  0.51936107  0.48110102  0.96203098     0.16200
O647        O  0.53038322  0.48660238  0.92941252    -0.26200
C648        C  0.50812521  0.48260034  0.93033671     0.06000
C649        C  0.50036272  0.47902872  0.95024360    -0.31100
O650        O  0.55053718  0.48374437  0.01020052    -0.22900
C651        C  0.57259625  0.48860118  0.00952101    -0.02900
C652        C  0.58069429  0.49152720  0.98959654    -0.17300
H653        H  0.57319858  0.49322074  0.94593605     0.20700
H654        H  0.50808928  0.47647729  0.99362005     0.19100
H655        H  0.48316947  0.47578740  0.95534163     0.19000
H656        H  0.59774210  0.49580885  0.98472481     0.14900
C657        C  0.50016392  0.57010496  0.71102030     0.30300
C658        C  0.48452749  0.57195735  0.72709102    -0.36000
C659        C  0.48756886  0.55677416  0.74339697     0.16300
C660        C  0.50506838  0.54108022  0.74416148     0.22100
C661        C  0.52072782  0.53914094  0.72795343    -0.34200
C662        C  0.51740188  0.55409715  0.71135570     0.16200
O663        O  0.49998302  0.58225862  0.69406992    -0.26200
C664        C  0.51712002  0.57381489  0.68318995     0.06000
C665        C  0.52860837  0.55619791  0.69310329    -0.31100
O666        O  0.50425434  0.52829474  0.76084545    -0.22900
C667        C  0.48581995  0.53580568  0.77059220    -0.02900
C668        C  0.47480345  0.55345334  0.76043998    -0.17300
H669        H  0.47065400  0.58409520  0.72670323     0.20700
H670        H  0.53421821  0.52657456  0.72807874     0.19100
H671        H  0.54303002  0.54644291  0.68766638     0.19000
H672        H  0.45941651  0.56232335  0.76486283     0.14900
C673        C  0.26197052  0.50641149  0.86921150     0.30300
C674        C  0.28092179  0.49973329  0.88092856    -0.36000
C675        C  0.30187900  0.49970569  0.87062393     0.16300
C676        C  0.30393544  0.50587667  0.85024367     0.22100
C677        C  0.28503779  0.51235031  0.83852825    -0.34200
C678        C  0.26417376  0.51231197  0.84878328     0.16200
O679        O  0.24082370  0.50824447  0.87575329    -0.26200
C680        C  0.22943532  0.51525515  0.85922658     0.06000
C681        C  0.24309998  0.51802459  0.84201922    -0.31100
O682        O  0.32509606  0.50541658  0.84381587    -0.22900
C683        C  0.33686540  0.49879989  0.86021148    -0.02900
C684        C  0.32333687  0.49489615  0.87737920    -0.17300
H685        H  0.27947169  0.49516541  0.89698282     0.20700
H686        H  0.28654845  0.51734360  0.82257830     0.19100
H687        H  0.23829548  0.52378575  0.82682458     0.19000
H688        H  0.32858319  0.48980621  0.89264797     0.14900
C689        C  0.05003791  0.04720600  0.50019667     0.30300
C690        C  0.05522972  0.06922975  0.49318304    -0.36000
C691        C  0.05411408  0.07248185  0.47185115     0.16300
C692        C  0.04831353  0.05524813  0.45836296     0.22100
C693        C  0.04309007  0.03324352  0.46537705    -0.34200
C694        C  0.04418083  0.02999905  0.48670190     0.16200
O695        O  0.05001282  0.04037358  0.51949333    -0.26200
C696        C  0.04402328  0.01851474  0.51835400     0.06000
C697        C  0.04017562  0.01112184  0.49832565    -0.31100
O698        O  0.04842564  0.06202381  0.43905828    -0.22900
C699        C  0.05436024  0.08389218  0.44016881    -0.02900
C700        C  0.05810389  0.09135303  0.46019881    -0.17300
H701        H  0.05982426  0.08285680  0.50362057     0.20700
H702        H  0.03850972  0.01961300  0.45493796     0.19100
H703        H  0.03517065  0.99432804  0.49309684     0.19000
H704        H  0.06309002  0.10816219  0.46540218     0.14900
C705        C  0.06078367  0.00439865  0.71721012     0.30300
C706        C  0.05897639  0.00207293  0.73858115    -0.36000
C707        C  0.07571389  0.01314384  0.75023058     0.16300
C708        C  0.09315575  0.02549714  0.74148168     0.22100
C709        C  0.09471011  0.02819568  0.72011770    -0.34200
C710        C  0.07783735  0.01729933  0.70846923     0.16200
O711        O  0.04778772  0.99439412  0.70337152    -0.26200
C712        C  0.05643462  0.00125230  0.68555530     0.06000
C713        C  0.07503356  0.01567038  0.68776820    -0.31100
O714        O  0.10754486  0.03349214  0.75526652    -0.22900
C715        C  0.09903981  0.02636453  0.77306309    -0.02900
C716        C  0.07920673  0.01371291  0.77087830    -0.17300
H717        H  0.04574147  0.99194060  0.74561185     0.20700
H718        H  0.10835356  0.03774176  0.71305841     0.19100
H719        H  0.08558729  0.02296917  0.67586565     0.19000
H720        H  0.06914721  0.00565492  0.78273034     0.14900
C721        C  0.04739802  0.55495660  0.49790209     0.30300
C722        C  0.05482806  0.53357857  0.49089294    -0.36000
C723        C  0.05287665  0.52973373  0.46970640     0.16300
C724        C  0.04417489  0.54580596  0.45634497     0.22100
C725        C  0.03674451  0.56719688  0.46335600    -0.34200
C726        C  0.03872159  0.57105381  0.48455026     0.16200
O727        O  0.04779277  0.56218230  0.51706958    -0.26200
C728        C  0.03927652  0.58318196  0.51600872     0.06000
C729        C  0.03330736  0.58963612  0.49615671    -0.31100
O730        O  0.04394349  0.53860495  0.43715876    -0.22900
C731        C  0.05263102  0.51766951  0.43823794    -0.02900
C732        C  0.05850838  0.51122692  0.45810861    -0.17300
H733        H  0.06169774  0.52086140  0.50123200     0.20700
H734        H  0.02994562  0.57994274  0.45300754     0.19100
H735        H  0.02612114  0.60565491  0.49102866     0.19000
H736        H  0.06585331  0.49528565  0.46324913     0.14900
C737        C  0.07707747  0.56809431  0.74075677     0.30300
C738        C  0.08036828  0.56577648  0.71952935    -0.36000
C739        C  0.06637430  0.57927155  0.70705538     0.16300
C740        C  0.05035302  0.59411095  0.71494188     0.22100
C741        C  0.04683260  0.59617234  0.73615703    -0.34200
C742        C  0.06072373  0.58257345  0.74862887     0.16200
O743        O  0.08908194  0.55805443  0.75523424    -0.26200
C744        C  0.08015403  0.56602861  0.77257523     0.06000
C745        C  0.06234891  0.58123383  0.76944610    -0.31100
O746        O  0.03986497  0.60583149  0.70052641    -0.22900
C747        C  0.04914385  0.59826292  0.68319396    -0.02900
C748        C  0.06568881  0.58166053  0.68627713    -0.17300
H749        H  0.09325024  0.55460004  0.71320844     0.20700
H750        H  0.03444317  0.60788258  0.74249838     0.19100
H751        H  0.05269482  0.59062644  0.78080569     0.19000
H752        H  0.07607083  0.57306296  0.67493393     0.14900
C753        C  0.00105905  0.77896081  0.58534473     0.30300
C754        C  0.00400952  0.79855690  0.57330566    -0.36000
C755        C  0.00381081  0.81939296  0.58390141     0.16300
C756        C  0.00085823  0.82087241  0.60490182     0.22100
C757        C  0.99768307  0.80127947  0.61692690    -0.34200
C758        C  0.99795356  0.78042815  0.60632975     0.16200
O759        O  0.00191227  0.75770341  0.57876605    -0.26200
C760        C  0.99929923  0.74537188  0.59573779     0.06000
C761        C  0.99666168  0.75860266  0.61335507    -0.31100
O762        O  0.00225111  0.84202214  0.61171283    -0.22900
C763        C  0.00607964  0.85424970  0.59485082    -0.02900
C764        C  0.00715433  0.84107073  0.57708400    -0.17300
H765        H  0.00682207  0.79758594  0.55689253     0.20700
H766        H  0.99569773  0.80219307  0.63344321     0.19100
H767        H  0.99485347  0.75298550  0.62910428     0.19000
H768        H  0.01048539  0.84657062  0.56150871     0.14900
loop_ 
_geom_bond_atom_site_label_1 
_geom_bond_atom_site_label_2 
_geom_bond_distance 
_geom_bond_site_symmetry_2 
_ccdc_geom_bond_type 
N1            N2   1.322       .  A
N1            C5   1.345       .  A
N1           Cu9   2.079       .  S
N2            C3   1.344       .  A
N2           Cu8   2.066       .  S
C3            C4   1.382       .  A
C3            H6   1.082       .  S
C4            C5   1.383       .  A
C4          C760   1.470   1_455  S
C5            H7   1.082       .  S
Cu8          N11   2.065       .  S
Cu9          N19   2.079       .  S
Cu10         N12   2.065       .  S
Cu10         N18   2.065       .  S
N11          N12   1.321       .  A
N11          C15   1.343       .  A
N12          C13   1.344       .  A
C13          C14   1.382       .  A
C13          H16   1.082       .  S
C14          C15   1.380       .  A
C14         C747   1.465       .  S
C15          H17   1.082       .  S
N18          N19   1.322       .  A
N18          C22   1.343       .  A
N19          C20   1.347       .  A
C20          C21   1.385       .  A
C20          H23   1.082       .  S
C21          C22   1.380       .  A
C21         C728   1.469       .  S
C22          H24   1.082       .  S
N25          N26   1.323       .  A
N25          C29   1.346       .  A
N25         Cu33   2.081       .  S
N26          C27   1.345       .  A
N26         Cu32   2.074       .  S
C27          C28   1.381       .  A
C27          H30   1.082       .  S
C28          C29   1.384       .  A
C28         C763   1.471       .  S
C29          H31   1.082       .  S
Cu32         N35   2.073       .  S
Cu33         N43   2.081       .  S
Cu34         N36   2.068       .  S
Cu34         N42   2.068       .  S
N35          N36   1.322       .  A
N35          C39   1.345       .  A
N36          C37   1.344   1_565  A
C37          C38   1.381   1_545  A
C37          H40   1.082       .  S
C38          C39   1.382       .  A
C38         C712   1.467   1_565  S
C39          H41   1.082       .  S
N42          N43   1.322       .  A
N42          C46   1.344   1_565  A
N43          C44   1.347       .  A
C44          C45   1.386   1_565  A
C44          H47   1.082       .  S
C45          C46   1.381       .  A
C45         C696   1.472       .  S
C46          H48   1.082       .  S
N49          N50   1.321       .  A
N49          C53   1.350       .  A
N49         Cu57   2.085       .  S
N50          C51   1.340       .  A
N50         Cu56   2.054       .  S
C51          C52   1.377       .  A
C51          H54   1.082       .  S
C52          C53   1.388       .  A
C52         C683   1.469       .  S
C53          H55   1.082       .  S
Cu56         N59   2.054       .  S
Cu57         N67   2.087       .  S
Cu58         N60   2.074       .  S
Cu58         N66   2.076       .  S
N59          N60   1.321       .  A
N59          C63   1.340       .  A
N60          C61   1.348       .  A
C61          C62   1.384       .  A
C61          H64   1.082       .  S
C62          C63   1.379       .  A
C62         C667   1.466       .  S
C63          H65   1.082       .  S
N66          N67   1.325       .  A
N66          C70   1.346       .  A
N67          C68   1.346       .  A
C68          C69   1.385       .  A
C68          H71   1.082       .  S
C69          C70   1.381       .  A
C69         C648   1.473       .  S
C70          H72   1.082       .  S
N73          N74   1.321       .  A
N73          C77   1.346       .  A
N73         Cu81   2.066       .  S
N74          C75   1.342       .  A
N74         Cu80   2.063       .  S
C75          C76   1.382       .  A
C75          H78   1.082       .  S
C76          C77   1.383       .  A
C76         C680   1.468       .  S
C77          H79   1.082       .  S
Cu80         N83   2.062       .  S
Cu81         N91   2.067       .  S
Cu82         N84   2.064       .  S
Cu82         N90   2.066       .  S
N83          N84   1.321       .  A
N83          C87   1.342       .  A
N84          C85   1.345       .  A
C85          C86   1.383       .  A
C85          H88   1.082       .  S
C86          C87   1.379       .  A
C86         C744   1.464       .  S
C87          H89   1.082       .  S
N90          N91   1.324       .  A
N90          C94   1.343       .  A
N91          C92   1.343       .  A
C92          C93   1.380       .  A
C92          H95   1.082       .  S
C93          C94   1.379       .  A
C93         C632   1.462       .  S
C94          H96   1.082       .  S
N97          N98   1.321       .  A
N97         C101   1.348       .  A
N97        Cu105   2.078       .  S
N98          C99   1.343       .  A
N98        Cu104   2.065       .  S
C99         C100   1.383       .  A
C99         H102   1.082       .  S
C100        C101   1.385       .  A
C100        C616   1.472       .  S
C101        H103   1.082       .  S
Cu104       N107   2.065       .  S
Cu105       N115   2.079       .  S
Cu106       N108   2.088       .  S
Cu106       N114   2.090       .  S
N107        N108   1.322       .  A
N107        C111   1.341       .  A
N108        C109   1.350       .  A
C109        C110   1.386       .  A
C109        H112   1.082       .  S
C110        C111   1.380       .  A
C110        C600   1.472       .  S
C111        H113   1.082       .  S
N114        N115   1.325       .  A
N114        C118   1.348       .  A
N115        C116   1.345       .  A
C116        C117   1.383       .  A
C116        H119   1.082       .  S
C117        C118   1.385       .  A
C117        C587   1.475       .  S
C118        H120   1.082       .  S
N121        N122   1.323       .  A
N121        C125   1.347       .  A
N121       Cu129   2.077       .  S
N122        C123   1.344       .  A
N122       Cu128   2.074       .  S
C123        C124   1.382       .  A
C123        H126   1.082       .  S
C124        C125   1.384       .  A
C124        C619   1.472       .  S
C125        H127   1.082       .  S
Cu128       N131   2.074       .  S
Cu129       N139   2.076       .  S
Cu130       N132   2.066       .  S
Cu130       N138   2.066       .  S
N131        N132   1.322       .  A
N131        C135   1.346       .  A
N132        C133   1.343       .  A
C133        C134   1.382       .  A
C133        H136   1.082       .  S
C134        C135   1.382       .  A
C134        C715   1.468       .  S
C135        H137   1.082       .  S
N138        N139   1.322       .  A
N138        C142   1.344       .  A
N139        C140   1.345       .  A
C140        C141   1.384       .  A
C140        H143   1.082       .  S
C141        C142   1.380       .  A
C141        C568   1.468       .  S
C142        H144   1.082       .  S
N145        N146   1.320       .  A
N145        C149   1.345       .  A
N145       Cu153   2.068       .  S
N146        C147   1.343       .  A
N146       Cu152   2.063       .  S
C147        C148   1.383       .  A
C147        H150   1.082       .  S
C148        C149   1.383       .  A
C148        C552   1.468       .  S
C149        H151   1.082       .  S
Cu152       N155   2.063       .  S
Cu153       N163   2.069       .  S
Cu154       N156   2.080       .  S
Cu154       N162   2.081       .  S
N155        N156   1.323       .  A
N155        C159   1.341       .  A
N156        C157   1.348       .  A
C157        C158   1.384       .  A
C157        H160   1.082       .  S
C158        C159   1.378       .  A
C158        C664   1.466       .  S
C159        H161   1.082       .  S
N162        N163   1.323       .  A
N162        C166   1.348       .  A
N163        C164   1.342       .  A
C164        C165   1.382       .  A
C164        H167   1.081       .  S
C165        C166   1.384       .  A
C165        C539   1.471       .  S
C166        H168   1.082       .  S
N169        N170   1.321       .  A
N169        C173   1.345       .  A
N169       Cu177   2.071       .  S
N170        C171   1.343       .  A
N170       Cu176   2.066       .  S
C171        C172   1.381       .  A
C171        H174   1.082       .  S
C172        C173   1.384       .  A
C172        C555   1.468       .  S
C173        H175   1.082       .  S
Cu176       N179   2.066       .  S
Cu177       N187   2.072       .  S
Cu178       N180   2.077       .  S
Cu178       N186   2.078       .  S
N179        N180   1.322       .  A
N179        C183   1.343       .  A
N180        C181   1.347       .  A
C181        C182   1.384       .  A
C181        H184   1.082       .  S
C182        C183   1.379       .  A
C182        C603   1.467       .  S
C183        H185   1.082       .  S
N186        N187   1.323       .  A
N186        C190   1.347       .  A
N187        C188   1.344       .  A
C188        C189   1.381       .  A
C188        H191   1.082       .  S
C189        C190   1.384       .  A
C189        C523   1.471       .  S
C190        H192   1.082   1_565  S
N193        N194   1.322       .  A
N193        C197   1.348       .  A
N193       Cu201   2.080       .  S
N194        C195   1.344       .  A
N194       Cu200   2.073       .  S
C195        C196   1.381       .  A
C195        H198   1.082       .  S
C196        C197   1.386       .  A
C196        C507   1.473       .  S
C197        H199   1.082       .  S
Cu200       N203   2.072       .  S
Cu201       N211   2.079       .  S
Cu202       N204   2.082       .  S
Cu202       N210   2.082       .  S
N203        N204   1.322       .  A
N203        C207   1.346       .  A
N204        C205   1.346       .  A
C205        C206   1.384       .  A
C205        H208   1.082       .  S
C206        C207   1.383       .  A
C206        C491   1.473       .  S
C207        H209   1.082       .  S
N210        N211   1.323       .  A
N210        C214   1.346       .  A
N211        C212   1.346       .  A
C212        C213   1.382       .  A
C212        H215   1.082       .  S
C213        C214   1.385       .  A
C213        C520   1.473       .  S
C214        H216   1.082       .  S
N217        N218   1.322       .  A
N217        C221   1.346       .  A
N217       Cu225   2.076       .  S
N218        C219   1.345       .  A
N218       Cu224   2.072       .  S
C219        C220   1.384       .  A
C219        H222   1.082       .  S
C220        C221   1.383       .  A
C220        C504   1.473       .  S
C221        H223   1.082       .  S
Cu224       N227   2.072       .  S
Cu225       N235   2.076       .  S
Cu226       N228   2.077       .  S
Cu226       N234   2.077       .  S
N227        N228   1.322       .  A
N227        C231   1.343       .  A
N228        C229   1.347       .  A
C229        C230   1.385       .  A
C229        H232   1.082       .  S
C230        C231   1.381       .  A
C230        C475   1.470       .  S
C231        H233   1.082       .  S
N234        N235   1.323       .  A
N234        C238   1.345       .  A
N235        C236   1.345       .  A
C236        C237   1.383       .  A
C236        H239   1.082       .  S
C237        C238   1.382       .  A
C237        C536   1.471       .  S
C238        H240   1.082       .  S
N241        N242   1.321       .  A
N241        C245   1.347       .  A
N241       Cu249   2.078       .  S
N242        C243   1.343       .  A
N242       Cu248   2.065       .  S
C243        C244   1.382       .  A
C243        H246   1.082       .  S
C244        C245   1.384       .  A
C244        C456   1.471       .  S
C245        H247   1.082       .  S
Cu248       N251   2.066       .  S
Cu249       N259   2.079       .  S
Cu250       N252   2.086       .  S
Cu250       N258   2.087       .  S
N251        N252   1.322       .  A
N251        C255   1.343       .  A
N252        C253   1.349       .  A
C253        C254   1.386       .  A
C253        H256   1.082       .  S
C254        C255   1.382       .  A
C254        C488   1.473       .  S
C255        H257   1.082       .  S
N258        N259   1.324       .  A
N258        C262   1.348       .  A
N259        C260   1.345       .  A
C260        C261   1.383       .  A
C260        H263   1.082       .  S
C261        C262   1.384       .  A
C261        C584   1.476       .  S
C262        H264   1.082       .  S
N265        N266   1.321       .  A
N265        C269   1.344       .  A
N265       Cu273   2.065       .  S
N266        C267   1.345       .  A
N266       Cu272   2.070       .  S
C267        C268   1.382       .  A
C267        H270   1.082       .  S
C268        C269   1.382       .  A
C268        C459   1.468       .  S
C269        H271   1.082       .  S
Cu272       N275   2.070       .  S
Cu273       N283   2.065       .  S
Cu274       N276   2.069       .  S
Cu274       N282   2.069       .  S
N275        N276   1.323       .  A
N275        C279   1.344       .  A
N276        C277   1.344   1_655  A
C277        C278   1.380   1_455  A
C277        H280   1.082       .  S
C278        C279   1.381       .  A
C278        C440   1.465   1_655  S
C279        H281   1.082       .  S
N282        N283   1.322       .  A
N282        C286   1.345   1_655  A
N283        C284   1.343       .  A
C284        C285   1.382   1_655  A
C284        H287   1.082       .  S
C285        C286   1.382       .  A
C285        C571   1.467       .  S
C286        H288   1.082       .  S
N289        N290   1.323       .  A
N289        C293   1.345       .  A
N289       Cu297   2.077       .  S
N290        C291   1.344       .  A
N290       Cu296   2.074       .  S
C291        C292   1.382       .  A
C291        H294   1.082       .  S
C292        C293   1.382       .  A
C292        C427   1.470       .  S
C293        H295   1.082       .  S
Cu296       N299   2.074       .  S
Cu297       N307   2.076       .  S
Cu298       N300   2.068       .  S
Cu298       N306   2.068       .  S
N299        N300   1.321       .  A
N299        C303   1.346       .  A
N300        C301   1.344       .  A
C301        C302   1.383       .  A
C301        H304   1.082       .  S
C302        C303   1.383       .  A
C302        C411   1.470       .  S
C303        H305   1.082       .  S
N306        N307   1.322       .  A
N306        C310   1.343       .  A
N307        C308   1.346       .  A
C308        C309   1.385       .  A
C308        H311   1.082       .  S
C309        C310   1.380       .  A
C309        C731   1.469       .  S
C310        H312   1.082       .  S
N313        N314   1.322       .  A
N313        C317   1.346       .  A
N313       Cu321   2.082       .  S
N314        C315   1.343       .  A
N314       Cu320   2.061       .  S
C315        C316   1.379       .  A
C315        H318   1.082       .  S
C316        C317   1.386       .  A
C316        C424   1.469       .  S
C317        H319   1.082       .  S
Cu320       N323   2.060       .  S
Cu321       N331   2.082       .  S
Cu322       N324   2.070       .  S
Cu322       N330   2.071       .  S
N323        N324   1.321       .  A
N323        C327   1.343       .  A
N324        C325   1.344       .  A
C325        C326   1.382       .  A
C325        H328   1.082       .  S
C326        C327   1.381       .  A
C326        C443   1.465       .  S
C327        H329   1.082       .  S
N330        N331   1.323       .  A
N330        C334   1.344       .  A
N331        C332   1.347       .  A
C332        C333   1.385       .  A
C332        H335   1.082       .  S
C333        C334   1.381       .  A
C333        C699   1.472       .  S
C334        H336   1.082       .  S
N337        N338   1.322       .  A
N337        C341   1.346       .  A
N337       Cu345   2.073       .  S
N338        C339   1.343       .  A
N338       Cu344   2.067       .  S
C339        C340   1.380       .  A
C339        H342   1.082       .  S
C340        C341   1.384       .  A
C340        C392   1.468       .  S
C341        H343   1.082       .  S
Cu344       N347   2.066       .  S
Cu345       N355   2.074       .  S
Cu346       N348   2.082       .  S
Cu346       N354   2.083       .  S
N347        N348   1.322       .  A
N347        C351   1.343       .  A
N348        C349   1.347       .  A
C349        C350   1.385       .  A
C349        H352   1.082       .  S
C350        C351   1.380       .  A
C350        C472   1.470       .  S
C351        H353   1.082       .  S
N354        N355   1.323       .  A
N354        C358   1.346       .  A
N355        C356   1.346       .  A
C356        C357   1.383       .  A
C356        H359   1.082       .  S
C357        C358   1.383       .  A
C357        C651   1.472       .  S
C358        H360   1.082       .  S
N361        N362   1.323       .  A
N361        C365   1.344       .  A
N361       Cu369   2.063       .  S
N362        C363   1.345       .  A
N362       Cu368   2.080       .  S
C363        C364   1.384       .  A
C363        H366   1.082       .  S
C364        C365   1.379       .  A
C364        C395   1.468       .  S
C365        H367   1.082       .  S
Cu368       N371   2.080       .  S
Cu369       N379   2.062       .  S
Cu370       N372   2.064       .  S
Cu370       N378   2.063       .  S
N371        N372   1.322       .  A
N371        C375   1.347       .  A
N372        C373   1.343       .  A
C373        C374   1.381       .  A
C373        H376   1.082   1_655  S
C374        C375   1.384       .  A
C374        C408   1.471       .  S
C375        H377   1.082       .  S
N378        N379   1.321       .  A
N378        C382   1.343       .  A
N379        C380   1.343       .  A
C380        C381   1.382       .  A
C380        H383   1.082       .  S
C381        C382   1.380       .  A
C381        C635   1.464   1_655  S
C382        H384   1.082   1_655  S
C385        C390   1.381       .  A
C385        C386   1.400       .  A
C385        O391   1.315       .  A
C386        C387   1.399       .  A
C386        H397   1.082       .  S
C387        C396   1.359       .  A
C387        C388   1.380       .  A
C388        C389   1.404       .  A
C388        O394   1.318       .  A
C389        C390   1.403       .  A
C389        H398   1.082       .  S
C390        C393   1.363       .  A
O391        C392   1.329       .  A
C392        C393   1.392       .  A
C393        H399   1.082       .  S
O394        C395   1.331       .  A
C395        C396   1.389       .  A
C396        H400   1.082       .  S
C401        C406   1.381   1_655  A
C401        C402   1.403       .  A
C401        O407   1.319       .  A
C402        C403   1.403   1_655  A
C402        H413   1.082       .  S
C403        C412   1.360       .  A
C403        C404   1.381       .  A
C404        C405   1.403       .  A
C404        O410   1.319       .  A
C405        C406   1.403       .  A
C405        H414   1.082       .  S
C406        C409   1.360       .  A
O407        C408   1.330       .  A
C408        C409   1.391   1_655  A
C409        H415   1.082       .  S
O410        C411   1.330       .  A
C411        C412   1.391       .  A
C412        H416   1.082       .  S
C417        C422   1.380       .  A
C417        C418   1.403       .  A
C417        O423   1.318       .  A
C418        C419   1.402       .  A
C418        H429   1.082       .  S
C419        C428   1.361       .  A
C419        C420   1.381       .  A
C420        C421   1.402       .  A
C420        O426   1.318       .  A
C421        C422   1.401       .  A
C421        H430   1.082       .  S
C422        C425   1.361       .  A
O423        C424   1.331       .  A
C424        C425   1.390       .  A
C425        H431   1.082       .  S
O426        C427   1.330       .  A
C427        C428   1.392       .  A
C428        H432   1.082       .  S
C433        C438   1.381       .  A
C433        C434   1.402       .  A
C433        O439   1.317       .  A
C434        C435   1.401       .  A
C434        H445   1.082       .  S
C435        C444   1.359       .  A
C435        C436   1.381       .  A
C436        C437   1.401       .  A
C436        O442   1.317       .  A
C437        C438   1.400       .  A
C437        H446   1.082   1_455  S
C438        C441   1.359   1_455  A
O439        C440   1.330       .  A
C440        C441   1.389   1_455  A
C441        H447   1.082       .  S
O442        C443   1.329       .  A
C443        C444   1.390       .  A
C444        H448   1.082       .  S
C449        C454   1.381       .  A
C449        C450   1.403       .  A
C449        O455   1.319       .  A
C450        C451   1.403       .  A
C450        H461   1.082       .  S
C451        C460   1.361       .  A
C451        C452   1.381       .  A
C452        C453   1.401       .  A
C452        O458   1.318       .  A
C453        C454   1.401       .  A
C453        H462   1.083       .  S
C454        C457   1.359       .  A
O455        C456   1.331       .  A
C456        C457   1.391       .  A
C457        H463   1.082       .  S
O458        C459   1.330       .  A
C459        C460   1.391       .  A
C460        H464   1.082       .  S
C465        C470   1.380       .  A
C465        C466   1.404       .  A
C465        O471   1.318       .  A
C466        C467   1.402       .  A
C466        H477   1.082       .  S
C467        C476   1.363       .  A
C467        C468   1.380       .  A
C468        C469   1.403       .  A
C468        O474   1.317       .  A
C469        C470   1.402       .  A
C469        H478   1.082       .  S
C470        C473   1.363       .  A
O471        C472   1.331       .  A
C472        C473   1.390       .  A
C473        H479   1.082       .  S
O474        C475   1.330       .  A
C475        C476   1.391       .  A
C476        H480   1.082       .  S
C481        C486   1.380       .  A
C481        C482   1.405       .  A
C481        O487   1.321       .  A
C482        C483   1.405       .  A
C482        H493   1.082       .  S
C483        C492   1.364       .  A
C483        C484   1.381       .  A
C484        C485   1.401       .  A
C484        O490   1.318       .  A
C485        C486   1.401       .  A
C485        H494   1.082       .  S
C486        C489   1.359       .  A
O487        C488   1.332       .  A
C488        C489   1.391       .  A
C489        H495   1.082       .  S
O490        C491   1.330       .  A
C491        C492   1.393       .  A
C492        H496   1.082       .  S
C497        C502   1.380       .  A
C497        C498   1.404       .  A
C497        O503   1.319       .  A
C498        C499   1.403       .  A
C498        H509   1.082       .  S
C499        C508   1.364       .  A
C499        C500   1.380       .  A
C500        C501   1.403       .  A
C500        O506   1.318       .  A
C501        C502   1.402       .  A
C501        H510   1.083       .  S
C502        C505   1.362       .  A
O503        C504   1.331       .  A
C504        C505   1.392       .  A
C505        H511   1.082       .  S
O506        C507   1.331       .  A
C507        C508   1.392       .  A
C508        H512   1.082       .  S
C513        C518   1.380       .  A
C513        C514   1.405       .  A
C513        O519   1.320       .  A
C514        C515   1.404       .  A
C514        H525   1.082       .  S
C515        C524   1.364       .  A
C515        C516   1.380       .  A
C516        C517   1.402       .  A
C516        O522   1.317   1_545  A
C517        C518   1.401       .  A
C517        H526   1.082   1_545  S
C518        C521   1.361       .  A
O519        C520   1.332       .  A
C520        C521   1.391       .  A
C521        H527   1.082       .  S
O522        C523   1.330       .  A
C523        C524   1.392   1_565  A
C524        H528   1.082       .  S
C529        C534   1.380       .  A
C529        C530   1.401       .  A
C529        O535   1.318       .  A
C530        C531   1.401       .  A
C530        H541   1.082       .  S
C531        C540   1.358       .  A
C531        C532   1.380       .  A
C532        C533   1.404       .  A
C532        O538   1.320       .  A
C533        C534   1.404       .  A
C533        H542   1.082       .  S
C534        C537   1.362       .  A
O535        C536   1.330       .  A
C536        C537   1.392       .  A
C537        H543   1.082       .  S
O538        C539   1.331       .  A
C539        C540   1.391       .  A
C540        H544   1.082       .  S
C545        C550   1.381       .  A
C545        C546   1.403       .  A
C545        O551   1.318       .  A
C546        C547   1.402       .  A
C546        H557   1.082       .  S
C547        C556   1.362       .  A
C547        C548   1.381       .  A
C548        C549   1.401       .  A
C548        O554   1.316       .  A
C549        C550   1.400       .  A
C549        H558   1.082       .  S
C550        C553   1.359       .  A
O551        C552   1.331       .  A
C552        C553   1.390       .  A
C553        H559   1.082       .  S
O554        C555   1.329       .  A
C555        C556   1.391       .  A
C556        H560   1.082       .  S
C561        C566   1.380       .  A
C561        C562   1.402       .  A
C561        O567   1.318       .  A
C562        C563   1.401       .  A
C562        H573   1.082       .  S
C563        C572   1.360       .  A
C563        C564   1.381   1_556  A
C564        C565   1.402   1_554  A
C564        O570   1.317       .  A
C565        C566   1.401       .  A
C565        H574   1.082   1_556  S
C566        C569   1.360       .  A
O567        C568   1.330       .  A
C568        C569   1.390       .  A
C569        H575   1.082       .  S
O570        C571   1.329       .  A
C571        C572   1.391   1_554  A
C572        H576   1.082   1_455  S
C577        C582   1.380       .  A
C577        C578   1.405       .  A
C577        O583   1.321   1_556  A
C578        C579   1.405       .  A
C578        H589   1.082       .  S
C579        C588   1.362       .  A
C579        C580   1.380       .  A
C580        C581   1.403       .  A
C580        O586   1.320       .  A
C581        C582   1.403       .  A
C581        H590   1.082       .  S
C582        C585   1.361       .  A
O583        C584   1.332       .  A
C584        C585   1.392   1_554  A
C585        H591   1.082       .  S
O586        C587   1.331       .  A
C587        C588   1.393       .  A
C588        H592   1.082       .  S
C593        C598   1.380       .  A
C593        C594   1.406       .  A
C593        O599   1.322       .  A
C594        C595   1.406       .  A
C594        H605   1.082       .  S
C595        C604   1.365   1_545  A
C595        C596   1.381   1_545  A
C596        C597   1.399       .  A
C596        O602   1.316       .  A
C597        C598   1.399   1_565  A
C597        H606   1.082       .  S
C598        C601   1.356       .  A
O599        C600   1.332       .  A
C600        C601   1.389       .  A
C601        H607   1.082       .  S
O602        C603   1.328       .  A
C603        C604   1.392       .  A
C604        H608   1.082   1_565  S
C609        C614   1.380       .  A
C609        C610   1.406       .  A
C609        O615   1.322       .  A
C610        C611   1.406       .  A
C610        H621   1.082       .  S
C611        C620   1.365       .  A
C611        C612   1.381       .  A
C612        C613   1.400       .  A
C612        O618   1.316       .  A
C613        C614   1.400       .  A
C613        H622   1.082       .  S
C614        C617   1.358       .  A
O615        C616   1.332       .  A
C616        C617   1.390       .  A
C617        H623   1.082       .  S
O618        C619   1.329       .  A
C619        C620   1.393       .  A
C620        H624   1.082       .  S
C625        C630   1.381       .  A
C625        C626   1.400       .  A
C625        O631   1.315       .  A
C626        C627   1.399       .  A
C626        H637   1.082       .  S
C627        C636   1.358   1_455  A
C627        C628   1.381       .  A
C628        C629   1.401       .  A
C628        O634   1.316   1_556  A
C629        C630   1.400       .  A
C629        H638   1.082   1_556  S
C630        C633   1.358       .  A
O631        C632   1.329       .  A
C632        C633   1.390       .  A
C633        H639   1.082       .  S
O634        C635   1.329       .  A
C635        C636   1.389   1_454  A
C636        H640   1.082       .  S
C641        C646   1.380       .  A
C641        C642   1.405       .  A
C641        O647   1.320       .  A
C642        C643   1.404       .  A
C642        H653   1.082       .  S
C643        C652   1.363       .  A
C643        C644   1.380       .  A
C644        C645   1.402       .  A
C644        O650   1.318   1_556  A
C645        C646   1.401       .  A
C645        H654   1.082       .  S
C646        C649   1.360       .  A
O647        C648   1.332       .  A
C648        C649   1.390       .  A
C649        H655   1.082       .  S
O650        C651   1.330       .  A
C651        C652   1.393   1_554  A
C652        H656   1.082       .  S
C657        C662   1.381       .  A
C657        C658   1.398       .  A
C657        O663   1.314       .  A
C658        C659   1.397       .  A
C658        H669   1.082       .  S
C659        C668   1.355       .  A
C659        C660   1.381       .  A
C660        C661   1.406       .  A
C660        O666   1.321       .  A
C661        C662   1.405       .  A
C661        H670   1.082       .  S
C662        C665   1.365       .  A
O663        C664   1.328       .  A
C664        C665   1.392       .  A
C665        H671   1.082       .  S
O666        C667   1.331       .  A
C667        C668   1.388       .  A
C668        H672   1.083       .  S
C673        C678   1.380       .  A
C673        C674   1.405       .  A
C673        O679   1.320       .  A
C674        C675   1.404       .  A
C674        H685   1.082       .  S
C675        C684   1.365       .  A
C675        C676   1.381       .  A
C676        C677   1.399       .  A
C676        O682   1.314       .  A
C677        C678   1.398       .  A
C677        H686   1.083       .  S
C678        C681   1.357       .  A
O679        C680   1.331       .  A
C680        C681   1.389       .  A
C681        H687   1.082       .  S
O682        C683   1.329       .  A
C683        C684   1.392       .  A
C684        H688   1.082       .  S
C689        C694   1.380       .  A
C689        C690   1.404       .  A
C689        O695   1.318       .  A
C690        C691   1.403       .  A
C690        H701   1.082       .  S
C691        C700   1.363       .  A
C691        C692   1.380       .  A
C692        C693   1.403       .  A
C692        O698   1.318       .  A
C693        C694   1.402       .  A
C693        H702   1.082       .  S
C694        C697   1.362       .  A
O695        C696   1.331       .  A
C696        C697   1.391       .  A
C697        H703   1.082   1_545  S
O698        C699   1.331       .  A
C699        C700   1.392       .  A
C700        H704   1.082       .  S
C705        C710   1.381       .  A
C705        C706   1.402       .  A
C705        O711   1.318   1_545  A
C706        C707   1.401       .  A
C706        H717   1.082   1_545  S
C707        C716   1.359       .  A
C707        C708   1.381       .  A
C708        C709   1.402       .  A
C708        O714   1.318       .  A
C709        C710   1.402       .  A
C709        H718   1.082       .  S
C710        C713   1.360       .  A
O711        C712   1.330   1_565  A
C712        C713   1.391       .  A
C713        H719   1.082       .  S
O714        C715   1.330       .  A
C715        C716   1.390       .  A
C716        H720   1.082       .  S
C721        C726   1.380       .  A
C721        C722   1.403       .  A
C721        O727   1.317       .  A
C722        C723   1.401       .  A
C722        H733   1.082       .  S
C723        C732   1.362       .  A
C723        C724   1.380       .  A
C724        C725   1.403       .  A
C724        O730   1.317       .  A
C725        C726   1.402       .  A
C725        H734   1.082       .  S
C726        C729   1.362       .  A
O727        C728   1.330       .  A
C728        C729   1.391       .  A
C729        H735   1.082       .  S
O730        C731   1.331       .  A
C731        C732   1.391       .  A
C732        H736   1.082       .  S
C737        C742   1.381       .  A
C737        C738   1.401       .  A
C737        O743   1.316       .  A
C738        C739   1.400       .  A
C738        H749   1.082       .  S
C739        C748   1.360       .  A
C739        C740   1.381       .  A
C740        C741   1.401       .  A
C740        O746   1.316       .  A
C741        C742   1.400       .  A
C741        H750   1.082       .  S
C742        C745   1.360       .  A
O743        C744   1.329       .  A
C744        C745   1.390       .  A
C745        H751   1.082       .  S
O746        C747   1.329       .  A
C747        C748   1.390       .  A
C748        H752   1.082       .  S
C753        C758   1.380   1_455  A
C753        C754   1.402       .  A
C753        O759   1.318       .  A
C754        C755   1.402       .  A
C754        H765   1.082       .  S
C755        C764   1.361       .  A
C755        C756   1.380       .  A
C756        C757   1.403   1_455  A
C756        O762   1.319       .  A
C757        C758   1.403       .  A
C757        H766   1.082       .  S
C758        C761   1.361       .  A
O759        C760   1.330   1_455  A
C760        C761   1.392       .  A
C761        H767   1.082       .  S
O762        C763   1.331       .  A
C763        C764   1.391       .  A
C764        H768   1.082       .  S
