geometry optimzed in LAMMPS
_audit_creation_date              2020-11-30 
_audit_creation_method            'lammps2cif' 
_symmetry_space_group_name_H-M    'P1' 
_symmetry_Int_Tables_number       1 
_symmetry_cell_setting            triclinic 
loop_ 
_symmetry_equiv_pos_as_xyz 
  x,y,z 
_cell_length_a                    49.62451883 
_cell_length_b                    75.24587708652226 
_cell_length_c                    68.4356216771346 
_cell_angle_alpha                 90.1798150585216 
_cell_angle_beta                  90.01372801452193 
_cell_angle_gamma                 90.14283783977905 
loop_ 
_atom_site_label 
_atom_site_type_symbol 
_atom_site_fract_x 
_atom_site_fract_y 
_atom_site_fract_z 
_atom_site_charge 
N1          N  0.50426849  0.36075605  0.78777491    -0.27300
N2          N  0.49783702  0.37564061  0.77873349    -0.35200
C3          C  0.50557938  0.38952769  0.78979152     0.01000
C4          C  0.51773706  0.38303705  0.80649876     0.07000
C5          C  0.51626621  0.36474636  0.80482818    -0.06100
H6          H  0.50151279  0.40326066  0.78626497     0.07700
H7          H  0.52309348  0.35505191  0.81534733     0.08900
Cu8        Cu  0.47789759  0.37637021  0.75221061     0.44200
Cu9        Cu  0.49598257  0.33576691  0.77679446     0.42000
Cu10       Cu  0.45941961  0.33368228  0.73113769     0.43900
N11         N  0.45765316  0.37350804  0.72595847    -0.34700
N12         N  0.45046803  0.35801532  0.71842155    -0.29000
C13         C  0.43768957  0.36081712  0.70138047    -0.05100
C14         C  0.43718370  0.37895454  0.69782484     0.07100
C15         C  0.44978557  0.38654521  0.71387879     0.00900
H16         H  0.42901013  0.35033309  0.69256297     0.08600
H17         H  0.45329791  0.40055569  0.71648703     0.07700
N18         N  0.47376199  0.31142329  0.74570157    -0.36200
N19         N  0.48732481  0.31234971  0.76230650    -0.28300
C20         C  0.49488733  0.29593765  0.76761634    -0.03600
C21         C  0.48581693  0.28409490  0.75362620     0.05000
C22         C  0.47222589  0.29429780  0.74004586     0.03100
H23         H  0.50604502  0.29288553  0.78075620     0.08200
H24         H  0.46241968  0.28965723  0.72684355     0.07100
N25         N  0.86915340  0.56166623  0.89387193    -0.27300
N26         N  0.89191403  0.56389390  0.90361993    -0.35200
C27         C  0.90883862  0.57390428  0.89305331     0.01000
C28         C  0.89636682  0.57797241  0.87562385     0.07000
C29         C  0.87107221  0.57023436  0.87670898    -0.06100
H30         H  0.92869439  0.57789161  0.89785728     0.07700
H31         H  0.85550187  0.57044156  0.86564490     0.08900
Cu32       Cu  0.90070838  0.55232385  0.92999901     0.44200
Cu33       Cu  0.83712396  0.54661522  0.90417819     0.42000
Cu34       Cu  0.85108887  0.52364214  0.94990562     0.43900
N35         N  0.90723210  0.53740439  0.95462600    -0.34700
N36         N  0.88886588  0.52661070  0.96195065    -0.29000
C37         C  0.89947202  0.51791194  0.97720736    -0.05100
C38         C  0.92572309  0.52367820  0.97965456     0.07100
C39         C  0.93009693  0.53591543  0.96497208     0.00900
H40         H  0.88904912  0.50788715  0.98563011     0.08600
H41         H  0.94875697  0.54259257  0.96142747     0.07700
N42         N  0.81468429  0.52267604  0.93547358    -0.36200
N43         N  0.80929955  0.53103917  0.91896669    -0.28300
C44         C  0.78354887  0.52773270  0.91394649    -0.03600
C45         C  0.77233847  0.51685803  0.92806774     0.05000
C46         C  0.79268496  0.51378420  0.94134531     0.03100
H47         H  0.77394898  0.53264075  0.90086309     0.08200
H48         H  0.79152523  0.50580577  0.95443220     0.07100
N49         N  0.57295947  0.44053691  0.89466394    -0.27300
N50         N  0.54760211  0.44077833  0.90052721    -0.35200
C51         C  0.53282842  0.43056607  0.88845490     0.01000
C52         C  0.54978780  0.42339215  0.87446380     0.07000
C53         C  0.57503452  0.43017903  0.87871286    -0.06100
H54         H  0.51118537  0.42919481  0.88934297     0.07700
H55         H  0.59348532  0.42795594  0.87065563     0.08900
Cu56       Cu  0.53389276  0.45563349  0.92404427     0.44200
Cu57       Cu  0.60317053  0.45495574  0.90796907     0.42000
Cu58       Cu  0.58346932  0.48355244  0.94813051     0.43900
N59         N  0.52509005  0.47194636  0.94765950    -0.34700
N60         N  0.54315931  0.48217961  0.95638370    -0.29000
C61         C  0.53103319  0.49126035  0.97085139    -0.05100
C62         C  0.50406524  0.48643651  0.97143894     0.07100
C63         C  0.50100618  0.47425982  0.95634045     0.00900
H64         H  0.54112490  0.50073637  0.98028927     0.08600
H65         H  0.48259797  0.46798870  0.95145473     0.07700
N66         N  0.62257348  0.48195402  0.93732379    -0.36200
N67         N  0.62955632  0.47124712  0.92284641    -0.28300
C68         C  0.65585184  0.47340925  0.91894997    -0.03600
C69         C  0.66608155  0.48598997  0.93167275     0.05000
C70         C  0.64438934  0.49131441  0.94297677     0.03100
H71         H  0.66636423  0.46687185  0.90710706     0.08200
H72         H  0.64439366  0.50141406  0.95427340     0.07100
N73         N  0.99490901  0.63381477  0.71611328    -0.27300
N74         N  0.98799310  0.61928274  0.72568590    -0.35200
C75         C  0.99271262  0.60503836  0.71436991     0.01000
C76         C  0.00290898  0.61082068  0.69670203     0.07000
C77         C  0.00425924  0.62916697  0.69836561    -0.06100
H78         H  0.98915549  0.59143181  0.71875044     0.07700
H79         H  0.01234589  0.63844816  0.68785431     0.08900
Cu80       Cu  0.97278650  0.61915690  0.75369927     0.44200
Cu81       Cu  0.99160078  0.65914139  0.72795154     0.42000
Cu82       Cu  0.96015313  0.66165682  0.77593359     0.43900
N83         N  0.95606467  0.62216244  0.78105428    -0.34700
N84         N  0.95115959  0.63775884  0.78919591    -0.29000
C85         C  0.93989169  0.63520476  0.80681753    -0.05100
C86         C  0.93736793  0.61710241  0.80975393     0.07100
C87         C  0.94809225  0.60923990  0.79323920     0.00900
H88         H  0.93457789  0.64576015  0.81683568     0.08600
H89         H  0.94976563  0.59516023  0.79022503     0.07700
N90         N  0.97222351  0.68359028  0.76007696    -0.36200
N91         N  0.98434529  0.68269275  0.74288983    -0.28300
C92         C  0.99077459  0.69922756  0.73711233    -0.03600
C93         C  0.98190666  0.71102738  0.75120054     0.05000
C94         C  0.97034956  0.70070279  0.76559102     0.03100
H95         H  0.00118587  0.70242160  0.72368176     0.08200
H96         H  0.96192638  0.70521880  0.77930843     0.07100
N97         N  0.03521191  0.50302524  0.55475403    -0.27300
N98         N  0.01678636  0.51326576  0.56298346    -0.35200
C99         C  0.99303351  0.51059833  0.55396078     0.01000
C100        C  0.99654898  0.49790727  0.53950182     0.07000
C101        C  0.02363326  0.49355438  0.54030010    -0.06100
H102        H  0.97462291  0.51758847  0.55746750     0.07700
H103        H  0.03449987  0.48483167  0.53052994     0.08900
Cu104      Cu  0.02475858  0.53071137  0.58579060     0.44200
Cu105      Cu  0.07559728  0.50299950  0.56280428     0.42000
Cu106      Cu  0.09372653  0.53206590  0.60288300     0.43900
N107        N  0.03748651  0.54583505  0.60943935    -0.34700
N108        N  0.06263497  0.54614477  0.61579556    -0.29000
C109        C  0.06419438  0.55676597  0.63158413    -0.05100
C110        C  0.03872701  0.56334015  0.63547678     0.07100
C111        C  0.02236932  0.55629757  0.62100265     0.00900
H112        H  0.08266317  0.55971782  0.63932138     0.08600
H113        H  0.00095561  0.55840685  0.61919434     0.07700
N114        N  0.12128597  0.51660582  0.58781741    -0.36200
N115        N  0.11468149  0.50579508  0.57331378    -0.28300
C116        C  0.13689962  0.49715340  0.56729400    -0.03600
C117        C  0.15855481  0.50299574  0.57836097     0.05000
C118        C  0.14785552  0.51521198  0.59133866     0.03100
H119        H  0.13722194  0.48717059  0.55587817     0.08200
H120        H  0.15831160  0.52203941  0.60303638     0.07100
N121        N  0.36657364  0.43377727  0.61309443    -0.27300
N122        N  0.39070889  0.43319558  0.60493984    -0.35200
C123        C  0.40755975  0.42430825  0.61676622     0.01000
C124        C  0.39345654  0.41926328  0.63327183     0.07000
C125        C  0.36746223  0.42532701  0.63036770    -0.06100
H126        H  0.42865367  0.42194485  0.61372273     0.07700
H127        H  0.35030993  0.42353254  0.63991682     0.08900
Cu128      Cu  0.40008172  0.44522291  0.57862111     0.44200
Cu129      Cu  0.33363915  0.44635013  0.60063715     0.42000
Cu130      Cu  0.34621597  0.46992732  0.55557597     0.43900
N131        N  0.40516360  0.46030077  0.55362486    -0.34700
N132        N  0.38557642  0.46947030  0.54533331    -0.29000
C133        C  0.39568977  0.47849980  0.53006741    -0.05100
C134        C  0.42297669  0.47494316  0.52879922     0.07100
C135        C  0.42822980  0.46319426  0.54380931     0.00900
H136        H  0.38393456  0.48692486  0.52054367     0.08600
H137        H  0.44752135  0.45749340  0.54759326     0.07700
N138        N  0.30904801  0.46943354  0.56947200    -0.36200
N139        N  0.30441274  0.46070882  0.58587343    -0.28300
C140        C  0.27866946  0.46332320  0.59129947    -0.03600
C141        C  0.26646756  0.47413831  0.57758827     0.05000
C142        C  0.28640177  0.47790169  0.56407412     0.03100
H143        H  0.26984444  0.45820619  0.60458810     0.08200
H144        H  0.28460597  0.48624885  0.55131442     0.07100
N145        N  0.94224768  0.36312984  0.28530183    -0.27300
N146        N  0.94767661  0.37847122  0.27680904    -0.35200
C147        C  0.94109298  0.39177434  0.28905415     0.01000
C148        C  0.93132537  0.38442942  0.30618342     0.07000
C149        C  0.93206856  0.36624580  0.30317510    -0.06100
H150        H  0.94280352  0.40571625  0.28548367     0.07700
H151        H  0.92593561  0.35601760  0.31333137     0.08900
Cu152      Cu  0.96464788  0.38059386  0.24926591     0.44200
Cu153      Cu  0.94981468  0.33870997  0.27252024     0.42000
Cu154      Cu  0.98728580  0.33972988  0.22691456     0.43900
N155        N  0.98490666  0.37946079  0.22283757    -0.34700
N156        N  0.99346673  0.36455883  0.21469971    -0.29000
C157        C  0.00604339  0.36844228  0.19782441    -0.05100
C158        C  0.00569586  0.38669229  0.19538910     0.07100
C159        C  0.99181341  0.39321324  0.21140115     0.00900
H160        H  0.01485855  0.35871068  0.18807974     0.08600
H161        H  0.98645645  0.40687522  0.21435526     0.07700
N162        N  0.97701945  0.31662153  0.24152247    -0.36200
N163        N  0.96265996  0.31624234  0.25779636    -0.28300
C164        C  0.95917497  0.29926375  0.26329668    -0.03600
C165        C  0.97196714  0.28849918  0.24983307     0.05000
C166        C  0.98328246  0.29989149  0.23633586     0.03100
H167        H  0.94872933  0.29511973  0.27639684     0.08200
H168        H  0.99513286  0.29629215  0.22366243     0.07100
N169        N  0.36910456  0.56009823  0.10948921    -0.27300
N170        N  0.39379086  0.56008542  0.10222919    -0.35200
C171        C  0.40994954  0.56958858  0.11414878     0.01000
C172        C  0.39464907  0.57604139  0.12957280     0.07000
C173        C  0.36891206  0.56958782  0.12616353    -0.06100
H174        H  0.43146393  0.57086112  0.11216904     0.07700
H175        H  0.35137816  0.57139843  0.13534120     0.08900
Cu176      Cu  0.40472735  0.54628507  0.07700578     0.44200
Cu177      Cu  0.33694115  0.54647139  0.09715967     0.42000
Cu178      Cu  0.35092745  0.52234392  0.05259108     0.43900
N179        N  0.41022310  0.53112391  0.05177912    -0.34700
N180        N  0.39049389  0.52246393  0.04288086    -0.29000
C181        C  0.40058272  0.51365568  0.02740207    -0.05100
C182        C  0.42795139  0.51706642  0.02630149     0.07100
C183        C  0.43340669  0.52805099  0.04214171     0.00900
H184        H  0.38885206  0.50530114  0.01768448     0.08600
H185        H  0.45286245  0.53297914  0.04677435     0.07700
N186        N  0.31353669  0.52256613  0.06607785    -0.36200
N187        N  0.30842618  0.53139568  0.08238414    -0.28300
C188        C  0.28261547  0.52859361  0.08750512    -0.03600
C189        C  0.27103019  0.51728185  0.07390910     0.05000
C190        C  0.29113977  0.51385408  0.06042075     0.03100
H191        H  0.27305888  0.53419969  0.10032566     0.08200
H192        H  0.28960808  0.50585151  0.04732040     0.07100
N193        N  0.06554049  0.44660032  0.11117767    -0.27300
N194        N  0.04041835  0.44689216  0.10473009    -0.35200
C195        C  0.02541410  0.43569314  0.11549419     0.01000
C196        C  0.04190789  0.42787556  0.12929946     0.07000
C197        C  0.06711921  0.43525977  0.12627217    -0.06100
H198        H  0.00384789  0.43409446  0.11398068     0.07700
H199        H  0.08516561  0.43287001  0.13472674     0.08900
Cu200      Cu  0.02710965  0.46310420  0.08233269     0.44200
Cu201      Cu  0.09653520  0.46209060  0.09991729     0.42000
Cu202      Cu  0.07780421  0.49194516  0.06147209     0.43900
N203        N  0.01999740  0.48005589  0.05914452    -0.34700
N204        N  0.03856355  0.49068475  0.05171031    -0.29000
C205        C  0.02785596  0.49984897  0.03682669    -0.05100
C206        C  0.00137620  0.49456405  0.03462125     0.07100
C207        C  0.99692808  0.48213418  0.04912265     0.00900
H208        H  0.03863331  0.50952019  0.02813738     0.08600
H209        H  0.97824859  0.47535345  0.05245090     0.07700
N210        N  0.11655986  0.48995982  0.07206305    -0.36200
N211        N  0.12370778  0.47891164  0.08609154    -0.28300
C212        C  0.15032695  0.48069668  0.08934426    -0.03600
C213        C  0.16022984  0.49364830  0.07690140     0.05000
C214        C  0.13829440  0.49907269  0.06601355     0.03100
H215        H  0.16158300  0.47327377  0.10009645     0.08200
H216        H  0.13811531  0.50863485  0.05425513     0.07100
N217        N  0.44270266  0.63486841  0.21948695    -0.27300
N218        N  0.44786908  0.61961516  0.22822195    -0.35200
C219        C  0.44018752  0.60615449  0.21649697     0.01000
C220        C  0.42934104  0.61324530  0.19959095     0.07000
C221        C  0.43156225  0.63149595  0.20192855    -0.06100
H222        H  0.44342951  0.59229587  0.21976614     0.07700
H223        H  0.42583260  0.64157589  0.19150535     0.08900
Cu224      Cu  0.46599907  0.61771058  0.25537245     0.44200
Cu225      Cu  0.45248850  0.65947542  0.23151759     0.42000
Cu226      Cu  0.49084109  0.65831474  0.27699376     0.43900
N227        N  0.48373005  0.61900305  0.28271165    -0.34700
N228        N  0.49307811  0.63379340  0.29070034    -0.29000
C229        C  0.50333654  0.63001988  0.30842620    -0.05100
C230        C  0.50008001  0.61198199  0.31175527     0.07100
C231        C  0.48779861  0.60544842  0.29506267     0.00900
H232        H  0.51315784  0.63962984  0.31783273     0.08600
H233        H  0.48236563  0.59177377  0.29205746     0.07700
N234        N  0.48138052  0.68146328  0.26208308    -0.36200
N235        N  0.46664511  0.68200364  0.24598152    -0.28300
C236        C  0.46334374  0.69908583  0.24068991    -0.03600
C237        C  0.47661678  0.70977317  0.25412482     0.05000
C238        C  0.48802008  0.69813771  0.26733663     0.03100
H239        H  0.45269452  0.70332867  0.22773891     0.08200
H240        H  0.50006342  0.70156943  0.27999800     0.07100
N241        N  0.86319187  0.43491434  0.39527284    -0.27300
N242        N  0.88768680  0.43471606  0.40287222    -0.35200
C243        C  0.90395267  0.42538143  0.39095063     0.01000
C244        C  0.88896797  0.41931927  0.37515709     0.07000
C245        C  0.86326517  0.42582102  0.37834495    -0.06100
H246        H  0.92531823  0.42353835  0.39333552     0.07700
H247        H  0.84618212  0.42504334  0.36860227     0.08900
Cu248      Cu  0.89852797  0.44836975  0.42821923     0.44200
Cu249      Cu  0.83094559  0.44865519  0.40703324     0.42000
Cu250      Cu  0.84667178  0.47658509  0.44820636     0.43900
N251        N  0.90377212  0.46404643  0.45307813    -0.34700
N252        N  0.88468200  0.47442374  0.46019394    -0.29000
C253        C  0.89390281  0.48273188  0.47627084    -0.05100
C254        C  0.92028645  0.47755246  0.47936463     0.07100
C255        C  0.92576514  0.46552947  0.46449302     0.00900
H256        H  0.88186880  0.49145145  0.48528341     0.08600
H257        H  0.94444091  0.45846770  0.46209332     0.07700
N258        N  0.80905286  0.47543053  0.43542098    -0.36200
N259        N  0.80296628  0.46486442  0.42060350    -0.28300
C260        C  0.77682031  0.46699794  0.41603615    -0.03600
C261        C  0.76599235  0.47945106  0.42870336     0.05000
C262        C  0.78705361  0.48464064  0.44063771     0.03100
H263        H  0.76676416  0.46036214  0.40402148     0.08200
H264        H  0.78640140  0.49433670  0.45234040     0.07100
N265        N  0.56016675  0.55005113  0.39434953    -0.27300
N266        N  0.53498601  0.54913457  0.40060734    -0.35200
C267        C  0.51946633  0.55934462  0.38906319     0.01000
C268        C  0.53567237  0.56680862  0.37479233     0.07000
C269        C  0.56134915  0.56076212  0.37872217    -0.06100
H270        H  0.49791027  0.56092154  0.39067637     0.07700
H271        H  0.57967273  0.56398711  0.37093360     0.08900
Cu272      Cu  0.52295349  0.53362188  0.42420862     0.44200
Cu273      Cu  0.59219399  0.53672042  0.40674174     0.42000
Cu274      Cu  0.57671647  0.50842641  0.44711970     0.43900
N275        N  0.51723146  0.51656393  0.44775304    -0.34700
N276        N  0.53684978  0.50724530  0.45581084    -0.29000
C277        C  0.52676872  0.49756648  0.47058369    -0.05100
C278        C  0.49944067  0.50085030  0.47186736     0.07100
C279        C  0.49411979  0.51310680  0.45732234     0.00900
H280        H  0.53871250  0.48921906  0.48006697     0.08600
H281        H  0.47486714  0.51907847  0.45396979     0.07700
N282        N  0.61528529  0.51173067  0.43629668    -0.36200
N283        N  0.62100876  0.52217656  0.42139131    -0.28300
C284        C  0.64740108  0.52086933  0.41725204    -0.03600
C285        C  0.65889654  0.50913008  0.43033879     0.05000
C286        C  0.63787881  0.50347338  0.44208051     0.03100
H287        H  0.65704212  0.52723981  0.40495811     0.08200
H288        H  0.63880400  0.49371809  0.45362285     0.07100
N289        N  0.96546328  0.13511022  0.21941372    -0.27300
N290        N  0.97284478  0.12056263  0.22872568    -0.35200
C291        C  0.96783625  0.10636797  0.21733282     0.01000
C292        C  0.95716226  0.11229636  0.19984622     0.07000
C293        C  0.95565040  0.13057658  0.20179346    -0.06100
H294        H  0.97128264  0.09280906  0.22174547     0.07700
H295        H  0.94831295  0.13992242  0.19107754     0.08900
Cu296      Cu  0.99057177  0.12054447  0.25604212     0.44200
Cu297      Cu  0.96979733  0.16042435  0.23076640     0.42000
Cu298      Cu  0.00685899  0.16327059  0.27644815     0.43900
N299        N  0.01077453  0.12388573  0.28219584    -0.34700
N300        N  0.01703869  0.13958248  0.28962475    -0.29000
C301        C  0.03046223  0.13726921  0.30647607    -0.05100
C302        C  0.03253028  0.11920979  0.30988493     0.07100
C303        C  0.02004221  0.11114407  0.29409945     0.00900
H304        H  0.03864132  0.14800916  0.31525116     0.08600
H305        H  0.01778971  0.09702075  0.29148448     0.07700
N306        N  0.99295956  0.18503602  0.26120450    -0.36200
N307        N  0.97904051  0.18402742  0.24476385    -0.28300
C308        C  0.97276977  0.20053086  0.23889699    -0.03600
C309        C  0.98360036  0.21244932  0.25215687     0.05000
C310        C  0.99602363  0.20219016  0.26620772     0.03100
H311        H  0.96141398  0.20362582  0.22586351     0.08200
H312        H  0.00604394  0.20676667  0.27934194     0.07100
N313        N  0.10282750  0.06281747  0.39312438    -0.27300
N314        N  0.07756516  0.06135134  0.39902466    -0.35200
C315        C  0.06168140  0.07062967  0.38691224     0.01000
C316        C  0.07770043  0.07812200  0.37261945     0.07000
C317        C  0.10371644  0.07301692  0.37705256    -0.06100
H318        H  0.04002652  0.07172078  0.38830990     0.07700
H319        H  0.12200253  0.07664902  0.36943862     0.08900
Cu320      Cu  0.06564061  0.04693187  0.42321329     0.44200
Cu321      Cu  0.13481196  0.05094763  0.40714537     0.42000
Cu322      Cu  0.11836799  0.02518007  0.45023989     0.43900
N323        N  0.05877686  0.03220779  0.44819693    -0.34700
N324        N  0.07812799  0.02431544  0.45816827    -0.29000
C325        C  0.06721817  0.01595182  0.47359208    -0.05100
C326        C  0.03963272  0.01853311  0.47317320     0.07100
C327        C  0.03501450  0.02907047  0.45697916     0.00900
H328        H  0.07848810  0.00837948  0.48420490     0.08600
H329        H  0.01598261  0.03441591  0.45210365     0.07700
N330        N  0.15695402  0.02785296  0.43911513    -0.36200
N331        N  0.16285048  0.03726131  0.42341280    -0.28300
C332        C  0.18920924  0.03557103  0.41943748    -0.03600
C333        C  0.20058955  0.02473906  0.43346567     0.05000
C334        C  0.17947912  0.01993478  0.44558474     0.03100
H335        H  0.19883861  0.04098351  0.40660648     0.08200
H336        H  0.18028816  0.01096336  0.45788027     0.07100
N337        N  0.39808002  0.94455043  0.39866135    -0.27300
N338        N  0.42359295  0.94544748  0.40413106    -0.35200
C339        C  0.43797322  0.93377129  0.39354920     0.01000
C340        C  0.42068364  0.92494356  0.38092870     0.07000
C341        C  0.39557898  0.93229068  0.38442249    -0.06100
H342        H  0.45967739  0.93265523  0.39418477     0.07700
H343        H  0.37702388  0.92934933  0.37674303     0.08900
Cu344      Cu  0.43839210  0.96345277  0.42454473     0.44200
Cu345      Cu  0.36837902  0.96096199  0.40979523     0.42000
Cu346      Cu  0.39091417  0.99473218  0.44425931     0.43900
N347        N  0.44855285  0.98269771  0.44508140    -0.34700
N348        N  0.43110414  0.99431842  0.45208193    -0.29000
C349        C  0.44320521  0.00427501  0.46587190    -0.05100
C350        C  0.46966492  0.99875612  0.46757569     0.07100
C351        C  0.47226741  0.98492720  0.45430192     0.00900
H352        H  0.43292406  0.01394888  0.47487162     0.08600
H353        H  0.48981563  0.97666699  0.45204351     0.07700
N354        N  0.35135223  0.99150759  0.43554072    -0.36200
N355        N  0.34311563  0.97917680  0.42308830    -0.28300
C356        C  0.31640324  0.98077377  0.42048378    -0.03600
C357        C  0.30736994  0.99464296  0.43204117     0.05000
C358        C  0.33010690  0.00127104  0.44120333     0.03100
H359        H  0.30473607  0.97282284  0.41035713     0.08200
H360        H  0.33116180  0.01243776  0.45118205     0.07100
N361        N  0.47178787  0.86112500  0.29631180    -0.27300
N362        N  0.47829776  0.87633903  0.28791470    -0.35200
C363        C  0.47002525  0.88983580  0.29930455     0.01000
C364        C  0.45742194  0.88282115  0.31558423     0.07000
C365        C  0.45927201  0.86456758  0.31336216    -0.06100
H366        H  0.47351730  0.90371774  0.29611434     0.07700
H367        H  0.45178352  0.85454383  0.32328205     0.08900
Cu368      Cu  0.49805043  0.87826464  0.26133549     0.44200
Cu369      Cu  0.47954216  0.83651202  0.28370262     0.42000
Cu370      Cu  0.51436911  0.83700239  0.23691350     0.43900
N371        N  0.51753326  0.87698010  0.23459583    -0.34700
N372        N  0.52350565  0.86190606  0.22564467    -0.29000
C373        C  0.53504269  0.86562102  0.20834754    -0.05100
C374        C  0.53669750  0.88390423  0.20640162     0.07100
C375        C  0.52515448  0.89067362  0.22326497     0.00900
H376        H  0.54138841  0.85573779  0.19780417     0.08600
H377        H  0.52139083  0.90447331  0.22672678     0.07700
N378        N  0.50124712  0.81396055  0.25065237    -0.36200
N379        N  0.48812643  0.81382901  0.26748138    -0.28300
C380        C  0.48136866  0.79697760  0.27186739    -0.03600
C381        C  0.49100422  0.78598099  0.25725394     0.05000
C382        C  0.50341946  0.79716985  0.24400480     0.03100
H383        H  0.47029311  0.79301714  0.28475925     0.08200
H384        H  0.51279108  0.79344372  0.23032666     0.07100
N385        N  0.92749491  0.01219998  0.05182447    -0.27300
N386        N  0.94478004  0.02388804  0.05908276    -0.35200
C387        C  0.96814770  0.02276886  0.04919649     0.01000
C388        C  0.96539652  0.00986084  0.03487137     0.07000
C389        C  0.93947194  0.00333097  0.03713131    -0.06100
H390        H  0.98593826  0.03050239  0.05260214     0.07700
H391        H  0.92991521  0.99297571  0.02855932     0.08900
Cu392      Cu  0.93615344  0.04079210  0.08216593     0.44200
Cu393      Cu  0.88813338  0.00897480  0.06178070     0.42000
Cu394      Cu  0.86871534  0.03792733  0.10144833     0.43900
N395        N  0.92284861  0.05546086  0.10589047    -0.34700
N396        N  0.89819024  0.05427369  0.11303276    -0.29000
C397        C  0.89643267  0.06434609  0.12922073    -0.05100
C398        C  0.92113202  0.07245930  0.13232508     0.07100
C399        C  0.93744351  0.06638664  0.11731657     0.00900
H400        H  0.87895552  0.06472380  0.13862636     0.08600
H401        H  0.95863638  0.06921087  0.11524530     0.07700
N402        N  0.84241316  0.02059754  0.08773613    -0.36200
N403        N  0.84933697  0.00977995  0.07334671    -0.28300
C404        C  0.82748825  0.00036674  0.06781039    -0.03600
C405        C  0.80576447  0.00575733  0.07908070     0.05000
C406        C  0.81611366  0.01842490  0.09171037     0.03100
H407        H  0.82733579  0.99047396  0.05629546     0.08200
H408        H  0.80555897  0.02529695  0.10329479     0.07100
N409        N  0.57412180  0.98120465  0.05642289    -0.27300
N410        N  0.55422359  0.97301977  0.06557027    -0.35200
C411        C  0.53088873  0.97672896  0.05643409     0.01000
C412        C  0.53635015  0.98794097  0.04087056     0.07000
C413        C  0.56401720  0.99032491  0.04125770    -0.06100
H414        H  0.51172980  0.97085667  0.06024550     0.07700
H415        H  0.57602241  0.99784598  0.03098968     0.08900
Cu416      Cu  0.56018558  0.95620331  0.08918807     0.44200
Cu417      Cu  0.61431258  0.97893157  0.06419488     0.42000
Cu418      Cu  0.63017296  0.95004380  0.10434296     0.43900
N419        N  0.57211483  0.93966448  0.11183294    -0.34700
N420        N  0.59744418  0.93746478  0.11733482    -0.29000
C421        C  0.59802334  0.92667141  0.13295876    -0.05100
C422        C  0.57187940  0.92166523  0.13738099     0.07100
C423        C  0.55596878  0.93026815  0.12377060     0.00900
H424        H  0.61609860  0.92310107  0.14085354     0.08600
H425        H  0.53420350  0.93047674  0.12317394     0.07700
N426        N  0.65905735  0.96467402  0.08933005    -0.36200
N427        N  0.65310396  0.97525979  0.07458860    -0.28300
C428        C  0.67569894  0.98341192  0.06847376    -0.03600
C429        C  0.69704849  0.97757247  0.07976345     0.05000
C430        C  0.68566493  0.96581584  0.09298930     0.03100
H431        H  0.67645534  0.99314095  0.05689071     0.08200
H432        H  0.69561356  0.95922967  0.10499743     0.07100
N433        N  0.53593814  0.13374992  0.72295986    -0.27300
N434        N  0.53102001  0.11832596  0.73144072    -0.35200
C435        C  0.53842679  0.10512588  0.71929809     0.01000
C436        C  0.54877024  0.11259202  0.70239433     0.07000
C437        C  0.54660824  0.13076978  0.70519366    -0.06100
H438        H  0.53510596  0.09119691  0.72222274     0.07700
H439        H  0.55185746  0.14107852  0.69487932     0.08900
Cu440      Cu  0.51254922  0.11588669  0.75848248     0.44200
Cu441      Cu  0.52582047  0.15808416  0.73520397     0.42000
Cu442      Cu  0.48793023  0.15667530  0.78035493     0.43900
N443        N  0.49211837  0.11697041  0.78488684    -0.34700
N444        N  0.48297915  0.13183443  0.79277604    -0.29000
C445        C  0.47031800  0.12799245  0.80961109    -0.05100
C446        C  0.47180699  0.10983432  0.81258517     0.07100
C447        C  0.48552005  0.10326786  0.79651136     0.00900
H448        H  0.46016632  0.13769989  0.81863050     0.08600
H449        H  0.49036985  0.08951964  0.79349654     0.07700
N450        N  0.49623538  0.17988066  0.76532155    -0.36200
N451        N  0.51056912  0.18045512  0.74904928    -0.28300
C452        C  0.51224402  0.19740625  0.74298915    -0.03600
C453        C  0.49794506  0.20792120  0.75591103     0.05000
C454        C  0.48825942  0.19642047  0.76998467     0.03100
H455        H  0.52262929  0.20171135  0.72992559     0.08200
H456        H  0.47649006  0.19980200  0.78276727     0.07100
N457        N  0.40462469  0.04982707  0.89467996    -0.27300
N458        N  0.42910046  0.05053358  0.90226979    -0.35200
C459        C  0.44496639  0.06038167  0.89061834     0.01000
C460        C  0.42985196  0.06597240  0.87481371     0.07000
C461        C  0.40427631  0.05918093  0.87796866    -0.06100
H462        H  0.46605386  0.06312700  0.89334543     0.07700
H463        H  0.38653147  0.06116352  0.86908395     0.08900
Cu464      Cu  0.44003924  0.03781264  0.92786351     0.44200
Cu465      Cu  0.37288224  0.03609965  0.90730478     0.42000
Cu466      Cu  0.38840034  0.01084198  0.95081717     0.43900
N467        N  0.44632090  0.02309560  0.95298587    -0.34700
N468        N  0.42754286  0.01320997  0.96134265    -0.29000
C469        C  0.43802518  0.00550203  0.97733170    -0.05100
C470        C  0.46474754  0.01060683  0.97898221     0.07100
C471        C  0.46924114  0.02189891  0.96338637     0.00900
H472        H  0.42705043  0.99674201  0.98699964     0.08600
H473        H  0.48756575  0.02907044  0.96002504     0.07700
N474        N  0.35033628  0.01174994  0.93818499    -0.36200
N475        N  0.34470713  0.02111641  0.92240256    -0.28300
C476        C  0.31848426  0.01904702  0.91798696    -0.03600
C477        C  0.30688610  0.00799862  0.93178934     0.05000
C478        C  0.32778813  0.00345207  0.94422082     0.03100
H479        H  0.30895058  0.02470633  0.90526167     0.08200
H480        H  0.32666118  0.99477629  0.95676338     0.07100
N481        N  0.10076014  0.93725055  0.89650071    -0.27300
N482        N  0.07564412  0.93775902  0.90293778    -0.35200
C483        C  0.05986052  0.92853663  0.89049580     0.01000
C484        C  0.07573080  0.92216317  0.87537552     0.07000
C485        C  0.10160283  0.92776477  0.87982905    -0.06100
H486        H  0.03826404  0.92707101  0.89198555     0.07700
H487        H  0.11979667  0.92518064  0.87163310     0.08900
Cu488      Cu  0.06371763  0.95209897  0.92755215     0.44200
Cu489      Cu  0.13274575  0.95039764  0.90969856     0.42000
Cu490      Cu  0.11558316  0.98038154  0.94869657     0.43900
N491        N  0.05745704  0.96886194  0.95142052    -0.34700
N492        N  0.07629994  0.97941611  0.95873377    -0.29000
C493        C  0.06606493  0.98851759  0.97393294    -0.05100
C494        C  0.03961079  0.98329602  0.97654856     0.07100
C495        C  0.03470897  0.97094403  0.96188999     0.00900
H496        H  0.07726826  0.99796573  0.98272748     0.08600
H497        H  0.01595560  0.96413645  0.95884963     0.07700
N498        N  0.15435220  0.97750818  0.93807287    -0.36200
N499        N  0.16080489  0.96619937  0.92403377    -0.28300
C500        C  0.18739486  0.96745248  0.92048589    -0.03600
C501        C  0.19818405  0.98008981  0.93299361     0.05000
C502        C  0.17661210  0.98632391  0.94378389     0.03100
H503        H  0.19783578  0.96019645  0.90912564     0.08200
H504        H  0.17703144  0.99661279  0.95486865     0.07100
N505        N  0.02609327  0.86160153  0.78680894    -0.27300
N506        N  0.01964944  0.87698752  0.77883112    -0.35200
C507        C  0.02569623  0.89013379  0.79148940     0.01000
C508        C  0.03617737  0.88264581  0.80833843     0.07000
C509        C  0.03640567  0.86452759  0.80470739    -0.06100
H510        H  0.02270908  0.90412048  0.78864655     0.07700
H511        H  0.04419353  0.85420718  0.81402793     0.08900
Cu512      Cu  0.00354193  0.87922845  0.75090722     0.44200
Cu513      Cu  0.02030310  0.83720493  0.77324569     0.42000
Cu514      Cu  0.98829433  0.83768421  0.72593789     0.43900
N515        N  0.98897684  0.87750896  0.72248799    -0.34700
N516        N  0.98345356  0.86239092  0.71343420    -0.29000
C517        C  0.97401189  0.86589659  0.69544491    -0.05100
C518        C  0.97380911  0.88413242  0.69294313     0.07100
C519        C  0.98319999  0.89104543  0.71045825     0.00900
H520        H  0.96674572  0.85586404  0.68538274     0.08600
H521        H  0.98534594  0.90494368  0.71426960     0.07700
N522        N  0.99663151  0.81468175  0.74109812    -0.36200
N523        N  0.00910915  0.81441158  0.75816321    -0.28300
C524        C  0.01133188  0.79746185  0.76412555    -0.03600
C525        C  0.99962552  0.78664224  0.75012195     0.05000
C526        C  0.99033907  0.79797174  0.73581671     0.03100
H527        H  0.01991418  0.79339753  0.77793125     0.08200
H528        H  0.97957756  0.79435336  0.72262046     0.07100
N529        N  0.90695212  0.94341213  0.61046486    -0.27300
N530        N  0.93178100  0.94408131  0.60349421    -0.35200
C531        C  0.94792019  0.93424699  0.61493563     0.01000
C532        C  0.93255768  0.92722298  0.62992465     0.07000
C533        C  0.90662105  0.93312078  0.62645912    -0.06100
H534        H  0.96937185  0.93263248  0.61274086     0.07700
H535        H  0.88866898  0.93006632  0.63474101     0.08900
Cu536      Cu  0.94285039  0.95863265  0.57910281     0.44200
Cu537      Cu  0.87455653  0.95699756  0.59875531     0.42000
Cu538      Cu  0.88922621  0.98325528  0.55617527     0.43900
N539        N  0.94831848  0.97455203  0.55475899    -0.34700
N540        N  0.92854716  0.98335426  0.54623907    -0.29000
C541        C  0.93852706  0.99255995  0.53106863    -0.05100
C542        C  0.96596500  0.98961262  0.53018060     0.07100
C543        C  0.97148358  0.97799304  0.54528863     0.00900
H544        H  0.92678650  0.00106751  0.52165468     0.08600
H545        H  0.99078224  0.97232177  0.54905248     0.07700
N546        N  0.85181637  0.98246113  0.56940071    -0.36200
N547        N  0.84629383  0.97280767  0.58499452    -0.28300
C548        C  0.82039863  0.97538031  0.59002735    -0.03600
C549        C  0.80925534  0.98740021  0.57709399     0.05000
C550        C  0.82966714  0.99146424  0.56409787     0.03100
H551        H  0.81051007  0.96914377  0.60232282     0.08200
H552        H  0.82850178  0.00005441  0.55149679     0.07100
N553        N  0.60697680  0.06210345  0.61008808    -0.27300
N554        N  0.58236089  0.06267709  0.60273011    -0.35200
C555        C  0.56651742  0.07211149  0.61485713     0.01000
C556        C  0.58193999  0.07794266  0.63053041     0.07000
C557        C  0.60744715  0.07121727  0.62700517    -0.06100
H558        H  0.54502367  0.07348056  0.61297070     0.07700
H559        H  0.62486393  0.07227680  0.63645629     0.08900
Cu560      Cu  0.57039555  0.04901100  0.57770746     0.44200
Cu561      Cu  0.63802025  0.04703519  0.59847532     0.42000
Cu562      Cu  0.61870923  0.01754893  0.55922331     0.43900
N563        N  0.56290673  0.03232090  0.55402233    -0.34700
N564        N  0.58061173  0.02058901  0.54760382    -0.29000
C565        C  0.57009600  0.01171794  0.53233337    -0.05100
C566        C  0.54434852  0.01801247  0.52903073     0.07100
C567        C  0.54056844  0.03123385  0.54290823     0.00900
H568        H  0.58089405  0.00189724  0.52387655     0.08600
H569        H  0.52286714  0.03942831  0.54479300     0.07700
N570        N  0.65651959  0.01763438  0.57180806    -0.36200
N571        N  0.66381620  0.02863956  0.58594190    -0.28300
C572        C  0.68980814  0.02571455  0.59037099    -0.03600
C573        C  0.69920378  0.01208835  0.57859528     0.05000
C574        C  0.67761547  0.00740356  0.56686571     0.03100
H575        H  0.70109450  0.03301978  0.60131053     0.08200
H576        H  0.67741333  0.99780393  0.55508372     0.07100
C577        C  0.76020051  0.98156463  0.57807188    -0.20300
C578        C  0.78125277  0.99399392  0.57700466    -0.06900
C579        C  0.77519805  0.01234106  0.57663058     0.14000
C580        C  0.74818798  0.01774520  0.57704191    -0.20400
C581        C  0.72710147  0.00532349  0.57770183    -0.06900
C582        C  0.73315076  0.98697341  0.57832963     0.13900
C583        C  0.71138409  0.97306990  0.58013861    -0.23800
H584        H  0.76498766  0.96752518  0.57863764     0.15200
H585        H  0.74345905  0.03180117  0.57681003     0.15300
C586        C  0.79700435  0.02632601  0.57671111    -0.23700
H587        H  0.71995120  0.95954725  0.58192385     0.05500
H588        H  0.69873574  0.97285242  0.56680151     0.08700
H589        H  0.69864357  0.97593798  0.59309906     0.08700
H590        H  0.80867659  0.02575614  0.56293263     0.08700
H591        H  0.81067033  0.02423475  0.58934099     0.08700
H592        H  0.78852486  0.03993183  0.57793754     0.05500
C593        C  0.94627156  0.90893969  0.68065299    -0.20300
C594        C  0.96290561  0.89441623  0.67633727    -0.06900
C595        C  0.96959766  0.89073540  0.65663063     0.14000
C596        C  0.95924178  0.90166112  0.64182231    -0.20400
C597        C  0.94219288  0.91599257  0.64617278    -0.06900
C598        C  0.93582977  0.91978288  0.66589350     0.13900
C599        C  0.91921515  0.93569871  0.67169204    -0.23800
H600        H  0.94137766  0.91183813  0.69576972     0.15200
H601        H  0.96441083  0.89897430  0.62670328     0.15300
C602        C  0.98845605  0.87587982  0.65109448    -0.23700
H603        H  0.91861327  0.93750336  0.68780255     0.05500
H604        H  0.89813219  0.93400566  0.66672235     0.08700
H605        H  0.92798947  0.94794675  0.66527164     0.08700
H606        H  0.97909594  0.86285289  0.65438661     0.08700
H607        H  0.00771975  0.87727723  0.65921231     0.08700
H608        H  0.99317100  0.87597796  0.63522621     0.05500
C609        C  0.04966269  0.89722317  0.86092803    -0.20300
C610        C  0.06652204  0.91196893  0.85802157    -0.06900
C611        C  0.07299910  0.91715320  0.83871484     0.14000
C612        C  0.06280499  0.90726353  0.82290314    -0.20400
C613        C  0.04649394  0.89224092  0.82580362    -0.06900
C614        C  0.03965123  0.88723093  0.84511388     0.13900
C615        C  0.02085805  0.87192852  0.84923410    -0.23800
H616        H  0.04435212  0.89347375  0.87572033     0.15200
H617        H  0.06772589  0.91124500  0.80811714     0.15300
C618        C  0.08958888  0.93351886  0.83455654    -0.23700
H619        H  0.01583550  0.87101680  0.86501540     0.05500
H620        H  0.03040565  0.85919967  0.84502012     0.08700
H621        H  0.00172883  0.87368313  0.84105398     0.08700
H622        H  0.11052855  0.93165671  0.83974702     0.08700
H623        H  0.08049709  0.94524204  0.84188959     0.08700
H624        H  0.09063372  0.93636832  0.81865929     0.05500
C625        C  0.27461445  0.98302143  0.93540550    -0.20300
C626        C  0.27879072  0.00127584  0.93241476    -0.06900
C627        C  0.25620510  0.01262380  0.93060212     0.14000
C628        C  0.23016484  0.00530106  0.93116856    -0.20400
C629        C  0.22610073  0.98696686  0.93328338    -0.06900
C630        C  0.24856035  0.97570456  0.93578556     0.13900
C631        C  0.24516139  0.95610202  0.93953911    -0.23800
H632        H  0.29188637  0.97438581  0.93718816     0.15200
H633        H  0.21281449  0.01391390  0.92962472     0.15300
C634        C  0.25920755  0.03249084  0.92880407    -0.23700
H635        H  0.26479856  0.94951669  0.94229873     0.05500
H636        H  0.23583740  0.94951832  0.92669731     0.08700
H637        H  0.23221241  0.95406506  0.95257782     0.08700
H638        H  0.26861644  0.03594216  0.91464504     0.08700
H639        H  0.27171024  0.03770429  0.94100470     0.08700
H640        H  0.23939143  0.03930958  0.92936856     0.05500
C641        C  0.45399794  0.09273199  0.86326663    -0.20300
C642        C  0.43925828  0.07736529  0.85860278    -0.06900
C643        C  0.43524702  0.07275858  0.83876191     0.14000
C644        C  0.44585609  0.08378282  0.82413801    -0.20400
C645        C  0.46024059  0.09930923  0.82879552    -0.06900
C646        C  0.46448656  0.10381015  0.84865103     0.13900
C647        C  0.48110299  0.11972067  0.85462427    -0.23800
H648        H  0.45736605  0.09606562  0.87849860     0.15200
H649        H  0.44296269  0.08023500  0.80891351     0.15300
C650        C  0.42102003  0.05585504  0.83285299    -0.23700
H651        H  0.48420314  0.12026185  0.87069055     0.05500
H652        H  0.47075240  0.13214734  0.85038730     0.08700
H653        H  0.50123998  0.11910447  0.84759002     0.08700
H654        H  0.39954618  0.05640887  0.83721390     0.08700
H655        H  0.43087959  0.04427993  0.83986521     0.08700
H656        H  0.42160000  0.05375626  0.81678442     0.05500
C657        C  0.54785530  0.10979057  0.66628616    -0.20300
C658        C  0.55735102  0.10337885  0.68425251    -0.06900
C659        C  0.57535267  0.08883851  0.68439965     0.14000
C660        C  0.58275748  0.08084696  0.66663589    -0.20400
C661        C  0.57274754  0.08696295  0.64867315    -0.06900
C662        C  0.55524271  0.10178957  0.64850503     0.13900
C663        C  0.54512100  0.10978907  0.62972891    -0.23800
H664        H  0.53436708  0.12109230  0.66617330     0.15200
H665        H  0.59641339  0.06963693  0.66679968     0.15300
C666        C  0.58786484  0.08214770  0.70304770    -0.23700
H667        H  0.53395118  0.12234100  0.63238049     0.05500
H668        H  0.53102964  0.10052279  0.62235056     0.08700
H669        H  0.56234599  0.11286538  0.61994660     0.08700
H670        H  0.57230160  0.07606486  0.71250842     0.08700
H671        H  0.59787133  0.09328280  0.71090831     0.08700
H672        H  0.60330023  0.07180214  0.70016011     0.05500
C673        C  0.52604451  0.99271347  0.00586004    -0.20300
C674        C  0.51766838  0.99412824  0.02540106    -0.06900
C675        C  0.49219938  0.00166022  0.02959159     0.14000
C676        C  0.47553758  0.00703470  0.01410052    -0.20400
C677        C  0.48382100  0.00540061  0.99457779    -0.06900
C678        C  0.50947380  0.99819606  0.99039745     0.13900
C679        C  0.51908347  0.99548821  0.96971019    -0.23800
H680        H  0.54555643  0.98696125  0.00263785     0.15200
H681        H  0.45592808  0.01268973  0.01723907     0.15300
C682        C  0.48283094  0.00476778  0.05026442    -0.23700
H683        H  0.53876575  0.98850378  0.96920452     0.05500
H684        H  0.52184338  0.00848610  0.96241290     0.08700
H685        H  0.50422847  0.98734602  0.96146324     0.08700
H686        H  0.49816130  0.01261535  0.05840012     0.08700
H687        H  0.47929828  0.99193351  0.05770998     0.08700
H688        H  0.46357435  0.01225505  0.05071366     0.05500
C689        C  0.01794552  0.00824051  0.99426948    -0.20300
C690        C  0.02087666  0.98982728  0.99177626    -0.06900
C691        C  0.00672085  0.97814450  0.00425323     0.14000
C692        C  0.98913809  0.98517043  0.01833929    -0.20400
C693        C  0.98569334  0.00356778  0.02056840    -0.06900
C694        C  0.00048969  0.01529313  0.00846986     0.13900
C695        C  0.99721310  0.03516737  0.00980257    -0.23800
H696        H  0.02909389  0.01715227  0.98481659     0.15200
H697        H  0.97804880  0.97622129  0.02778402     0.15300
C698        C  0.01082583  0.95832078  0.00336089    -0.23700
H699        H  0.00874495  0.04213189  0.99820031     0.05500
H700        H  0.00485845  0.04008303  0.02404161     0.08700
H701        H  0.97564776  0.03874915  0.00813058     0.08700
H702        H  0.03256202  0.95520558  0.00506610     0.08700
H703        H  0.00342352  0.95297791  0.98924433     0.08700
H704        H  0.99966894  0.95137091  0.01516240     0.05500
C705        C  0.77383200  0.98032913  0.07893075    -0.20300
C706        C  0.77782753  0.99878846  0.07851375    -0.06900
C707        C  0.75519135  0.01014507  0.07750251     0.14000
C708        C  0.72919412  0.00275663  0.07783479    -0.20400
C709        C  0.72514439  0.98433429  0.07918433    -0.06900
C710        C  0.74778781  0.97293709  0.07932471     0.13900
C711        C  0.74473350  0.95300967  0.07912543    -0.23800
H712        H  0.79122761  0.97164794  0.07926933     0.15200
H713        H  0.71184314  0.01146866  0.07727650     0.15300
C714        C  0.75819183  0.02998219  0.07526502    -0.23700
H715        H  0.76450624  0.94624777  0.07766981     0.05500
H716        H  0.73196858  0.94887509  0.06657355     0.08700
H717        H  0.73549794  0.94840492  0.09294545     0.08700
H718        H  0.77103480  0.03297527  0.06239855     0.08700
H719        H  0.76729143  0.03586936  0.08857209     0.08700
H720        H  0.73841635  0.03655388  0.07302374     0.05500
C721        C  0.57268311  0.91681040  0.17314138    -0.20300
C722        C  0.56281897  0.91163949  0.15476504    -0.06900
C723        C  0.54488552  0.89706286  0.15341141     0.14000
C724        C  0.53685483  0.88829226  0.17053964    -0.20400
C725        C  0.54604520  0.89381541  0.18899135    -0.06900
C726        C  0.56441252  0.90818313  0.19029735     0.13900
C727        C  0.57615340  0.91411027  0.20956372    -0.23800
H728        H  0.58668709  0.92786379  0.17409302     0.15200
H729        H  0.52307375  0.87712213  0.16954403     0.15300
C730        C  0.53494764  0.89025920  0.13396231    -0.23700
H731        H  0.59167786  0.92461787  0.20760880     0.05500
H732        H  0.58582482  0.90268155  0.21698336     0.08700
H733        H  0.56016606  0.91971125  0.21902676     0.08700
H734        H  0.55236487  0.88690700  0.12447296     0.08700
H735        H  0.52235841  0.90043857  0.12672150     0.08700
H736        H  0.52240710  0.87810412  0.13560389     0.05500
C737        C  0.50109368  0.99066033  0.49412599    -0.20300
C738        C  0.48921049  0.00405189  0.48285294    -0.06900
C739        C  0.49584134  0.02202381  0.48662004     0.14000
C740        C  0.51380323  0.02613007  0.50185365    -0.20400
C741        C  0.52560653  0.01273371  0.51319586    -0.06900
C742        C  0.51908337  0.99474122  0.50932166     0.13900
C743        C  0.52990555  0.97980567  0.52165854    -0.23800
H744        H  0.49579783  0.97690726  0.49127932     0.15200
H745        H  0.51898856  0.03988920  0.50476558     0.15300
C746        C  0.48496588  0.03686027  0.47417544    -0.23700
H747        H  0.52078996  0.96681928  0.51756191     0.05500
H748        H  0.52527013  0.98232314  0.53729308     0.08700
H749        H  0.55195959  0.97856048  0.51965665     0.08700
H750        H  0.46282621  0.03785646  0.47586898     0.08700
H751        H  0.48999124  0.03436306  0.45859792     0.08700
H752        H  0.49372762  0.04992194  0.47838292     0.05500
C753        C  0.41857295  0.91652033  0.34594559    -0.20300
C754        C  0.42829134  0.91285491  0.36475279    -0.06900
C755        C  0.44547194  0.89810725  0.36756178     0.14000
C756        C  0.45406220  0.88823511  0.35126502    -0.20400
C757        C  0.44589239  0.89274137  0.33229587    -0.06900
C758        C  0.42711573  0.90664344  0.32967069     0.13900
C759        C  0.41535037  0.91079726  0.30989679    -0.23800
H760        H  0.40480068  0.92751950  0.34388367     0.15200
H761        H  0.46777969  0.87720078  0.35328697     0.15300
C762        C  0.45409721  0.89234157  0.38768528    -0.23700
H763        H  0.39938042  0.92107914  0.31087133     0.05500
H764        H  0.40620283  0.89861360  0.30350425     0.08700
H765        H  0.43114958  0.91594547  0.29998015     0.08700
H766        H  0.43605515  0.89013569  0.39697310     0.08700
H767        H  0.46721168  0.90253671  0.39451151     0.08700
H768        H  0.46569769  0.87974387  0.38720230     0.05500
C769        C  0.97919660  0.99528915  0.49593840    -0.20300
C770        C  0.98497962  0.99724012  0.51588124    -0.06900
C771        C  0.00816243  0.00681652  0.52172062     0.14000
C772        C  0.02541361  0.01376336  0.50739579    -0.20400
C773        C  0.01983457  0.01164025  0.48742269    -0.06900
C774        C  0.99638530  0.00228909  0.48159467     0.13900
C775        C  0.98991120  0.99893386  0.46038058    -0.23800
H776        H  0.96128786  0.98799957  0.49157529     0.15200
H777        H  0.04331913  0.02103248  0.51180421     0.15300
C778        C  0.01426596  0.01035893  0.54295700    -0.23700
H779        H  0.97201893  0.99017214  0.45864393     0.05500
H780        H  0.00722752  0.99235389  0.45309568     0.08700
H781        H  0.98530062  0.01162068  0.45294301     0.08700
H782        H  0.01849205  0.99772645  0.55062941     0.08700
H783        H  0.99684697  0.01708578  0.54995307     0.08700
H784        H  0.03220771  0.01906386  0.54476704     0.05500
C785        C  0.27682706  0.02048252  0.43099983    -0.20300
C786        C  0.27991215  0.00205928  0.43301911    -0.06900
C787        C  0.25698994  0.99129864  0.43631836     0.14000
C788        C  0.23144233  0.99919133  0.43664241    -0.20400
C789        C  0.22822784  0.01751137  0.43372018    -0.06900
C790        C  0.25127174  0.02838110  0.43127757     0.13900
C791        C  0.24929860  0.04831852  0.42971661    -0.23800
H792        H  0.29454031  0.02872226  0.42889951     0.15200
H793        H  0.21377963  0.99093606  0.43887407     0.15300
C794        C  0.25929432  0.97165753  0.44024559    -0.23700
H795        H  0.26950687  0.05470349  0.42975412     0.05500
H796        H  0.23779836  0.05369596  0.44232072     0.08700
H797        H  0.23929819  0.05210009  0.41588698     0.08700
H798        H  0.27329333  0.96937338  0.45264033     0.08700
H799        H  0.26671162  0.96461487  0.42708249     0.08700
H800        H  0.23950852  0.96570134  0.44412199     0.05500
C801        C  0.95459217  0.07867674  0.15823384    -0.20300
C802        C  0.92979343  0.08289489  0.14958098    -0.06900
C803        C  0.91437210  0.09705492  0.15729891     0.14000
C804        C  0.92385256  0.10623528  0.17380207    -0.20400
C805        C  0.94827933  0.10167234  0.18279693    -0.06900
C806        C  0.96409038  0.08785764  0.17471789     0.13900
C807        C  0.99146507  0.08315538  0.18271739    -0.23800
H808        H  0.96655224  0.06797331  0.15214558     0.15200
H809        H  0.91202455  0.11704815  0.17979573     0.15300
C810        C  0.88859722  0.10314504  0.14780425    -0.23700
H811        H  0.00200508  0.07337513  0.17324991     0.05500
H812        H  0.98946602  0.07702536  0.19732788     0.08700
H813        H  0.00428655  0.09524286  0.18363360     0.08700
H814        H  0.87277075  0.09284363  0.14926185     0.08700
H815        H  0.89220920  0.10602463  0.13211932     0.08700
H816        H  0.88073056  0.11544618  0.15474902     0.05500
C817        C  0.06262179  0.09557113  0.32189898    -0.20300
C818        C  0.04584738  0.11002849  0.32629216    -0.06900
C819        C  0.04058001  0.11437942  0.34605219     0.14000
C820        C  0.05185743  0.10390461  0.36084353    -0.20400
C821        C  0.06845486  0.08940150  0.35640780    -0.06900
C822        C  0.07412020  0.08523207  0.33670204     0.13900
C823        C  0.09106340  0.06940794  0.33113665    -0.23800
H824        H  0.06647778  0.09221472  0.30673274     0.15200
H825        H  0.04746658  0.10691724  0.37601977     0.15300
C826        C  0.02207360  0.12938429  0.35172496    -0.23700
H827        H  0.09194655  0.06752952  0.31504361     0.05500
H828        H  0.08240524  0.05714701  0.33761257     0.08700
H829        H  0.11200613  0.07128328  0.33639238     0.08700
H830        H  0.00218993  0.12765350  0.34452208     0.08700
H831        H  0.03107281  0.14228796  0.34745431     0.08700
H832        H  0.01865971  0.12987949  0.36775919     0.05500
C833        C  0.73524257  0.50521280  0.42893933    -0.20300
C834        C  0.73839492  0.48669399  0.42892372    -0.06900
C835        C  0.71540014  0.47563663  0.43003059     0.14000
C836        C  0.68977536  0.48342383  0.43064086    -0.20400
C837        C  0.68655807  0.50193409  0.43000660    -0.11700
C838        C  0.70960158  0.51300733  0.42938531     0.13900
C839        C  0.70744286  0.53297952  0.42999490    -0.23800
H840        H  0.75300133  0.51362859  0.42847062     0.15200
H841        H  0.67206786  0.47498335  0.43139114     0.15300
C842        C  0.71770626  0.45570678  0.43133420    -0.23700
H843        H  0.72757890  0.53941724  0.43088875     0.05500
H844        H  0.69567285  0.53713698  0.44301718     0.08700
H845        H  0.69753970  0.53792195  0.41657357     0.08700
H846        H  0.73070421  0.45206480  0.44390077     0.08700
H847        H  0.72638558  0.45027598  0.41765660     0.08700
H848        H  0.69773808  0.44929722  0.43347265     0.05500
C849        C  0.50574362  0.73650471  0.25516987    -0.20300
C850        C  0.47964644  0.72935064  0.25406018    -0.06900
C851        C  0.45723516  0.74093318  0.25394775     0.14000
C852        C  0.46156387  0.75938232  0.25504313    -0.20400
C853        C  0.48769246  0.76649826  0.25583756    -0.06900
C854        C  0.51006259  0.75494162  0.25586622     0.13900
C855        C  0.53844505  0.76197662  0.25731234    -0.23800
H856        H  0.52286104  0.72758492  0.25545037     0.15200
H857        H  0.44447797  0.76833707  0.25519978     0.15300
C858        C  0.42876756  0.73393975  0.25343587    -0.23700
H859        H  0.55345447  0.75106437  0.25790255     0.05500
H860        H  0.54065730  0.77011688  0.27078126     0.08700
H861        H  0.54315507  0.77026029  0.24437421     0.08700
H862        H  0.42539951  0.72477656  0.26588688     0.08700
H863        H  0.42505687  0.72679370  0.23950100     0.08700
H864        H  0.41376949  0.74483518  0.25450231     0.05500
C865        C  0.52399752  0.58558969  0.32408157    -0.20300
C866        C  0.50986587  0.60123668  0.32838117    -0.06900
C867        C  0.50414949  0.60552531  0.34809646     0.14000
C868        C  0.51273886  0.59397708  0.36295478    -0.20400
C869        C  0.52725448  0.57848749  0.35859488    -0.06900
C870        C  0.53290529  0.57421266  0.33889322     0.13900
C871        C  0.54728444  0.55732593  0.33326446    -0.23800
H872        H  0.52812498  0.58224529  0.30895483     0.15200
H873        H  0.50825527  0.59708936  0.37808798     0.15300
C874        C  0.48815960  0.62179404  0.35354706    -0.23700
H875        H  0.54815014  0.55554538  0.31715784     0.05500
H876        H  0.53655332  0.54568630  0.33949524     0.08700
H877        H  0.56832208  0.55763001  0.33867560     0.08700
H878        H  0.46846607  0.62163323  0.34584922     0.08700
H879        H  0.49950309  0.63396282  0.34959017     0.08700
H880        H  0.48414429  0.62241151  0.36950373     0.05500
C881        C  0.42900004  0.60944533  0.16357933    -0.20300
C882        C  0.42001150  0.60357501  0.18190787    -0.06900
C883        C  0.40191087  0.58904448  0.18284949     0.14000
C884        C  0.39418413  0.58038589  0.16551439    -0.20400
C885        C  0.40391295  0.58585509  0.14721710    -0.06900
C886        C  0.42118241  0.60082809  0.14622567     0.13900
C887        C  0.43051280  0.60834854  0.12699046    -0.23800
H888        H  0.44243577  0.62080266  0.16284392     0.15200
H889        H  0.38051944  0.56915011  0.16627404     0.15300
C890        C  0.38962704  0.58306869  0.20188344    -0.23700
H891        H  0.44173361  0.62101769  0.12899055     0.05500
H892        H  0.41286875  0.61107737  0.11749119     0.08700
H893        H  0.44428995  0.59893511  0.11960226     0.08700
H894        H  0.37982082  0.59449717  0.20929557     0.08700
H895        H  0.40526669  0.57734838  0.21151322     0.08700
H896        H  0.37406649  0.57263142  0.19958109     0.05500
C897        C  0.20904406  0.48741134  0.07380907    -0.20300
C898        C  0.18837543  0.50001587  0.07544882    -0.06900
C899        C  0.19504425  0.51828710  0.07648180     0.14000
C900        C  0.22221135  0.52344593  0.07574652    -0.20400
C901        C  0.24284277  0.51087765  0.07378121    -0.06900
C902        C  0.23621908  0.49260429  0.07284077     0.13900
C903        C  0.25766654  0.47849619  0.07170105    -0.23800
H904        H  0.20385714  0.47341204  0.07326141     0.15200
H905        H  0.22743681  0.53741941  0.07672364     0.15300
C906        C  0.17384067  0.53238091  0.07927715    -0.23700
H907        H  0.24889980  0.46491418  0.07235056     0.05500
H908        H  0.27188046  0.48000401  0.08413270     0.08700
H909        H  0.26882379  0.47958908  0.05773165     0.08700
H910        H  0.16155602  0.52934754  0.09241336     0.08700
H911        H  0.16065727  0.53307592  0.06624049     0.08700
H912        H  0.18293069  0.54575831  0.08134829     0.05500
C913        C  0.00035915  0.26166690  0.25165351    -0.20300
C914        C  0.97451962  0.26903589  0.25038019    -0.06900
C915        C  0.95175932  0.25778902  0.24934754     0.14000
C916        C  0.95540265  0.23933092  0.24988041    -0.20400
C917        C  0.98118524  0.23194459  0.25171874    -0.06900
C918        C  0.00400381  0.24320925  0.25248355     0.13900
C919        C  0.03221691  0.23588280  0.25343485    -0.23800
H920        H  0.01771951  0.27042417  0.25218761     0.15200
H921        H  0.93803172  0.23059977  0.24902984     0.15300
C922        C  0.92374848  0.26518080  0.24705966    -0.23700
H923        H  0.04761047  0.24659677  0.25265494     0.05500
H924        H  0.03565855  0.22665835  0.24099234     0.08700
H925        H  0.03531129  0.22874174  0.26738999     0.08700
H926        H  0.92274844  0.27352594  0.23372624     0.08700
H927        H  0.91840730  0.27333948  0.26000583     0.08700
H928        H  0.90844026  0.25445777  0.24565477     0.05500
C929        C  0.00994384  0.39115321  0.15964256    -0.20300
C930        C  0.01635069  0.39688502  0.17862483    -0.06900
C931        C  0.03288911  0.41205454  0.18117816     0.14000
C932        C  0.04128153  0.42165095  0.16472623    -0.20400
C933        C  0.03360679  0.41650232  0.14581955    -0.06900
C934        C  0.01834702  0.40078738  0.14317436     0.13900
C935        C  0.01167914  0.39378545  0.12308669    -0.23800
H936        H  0.99787454  0.37924440  0.15771132     0.15200
H937        H  0.05352622  0.43348066  0.16665927     0.15300
C938        C  0.04264799  0.41785444  0.20107013    -0.23700
H939        H  0.00115459  0.38075531  0.12377550     0.05500
H940        H  0.03051465  0.39195386  0.11456401     0.08700
H941        H  0.99824912  0.40315015  0.11533305     0.08700
H942        H  0.05289476  0.40661667  0.20844399     0.08700
H943        H  0.02556075  0.42250188  0.21012088     0.08700
H944        H  0.05725471  0.42902487  0.20007176     0.05500
C945        C  0.89636887  0.38789984  0.33163871    -0.20300
C946        C  0.92089353  0.39371058  0.32370410    -0.06900
C947        C  0.93528973  0.40752699  0.33313888     0.14000
C948        C  0.92428446  0.41552430  0.34987945    -0.20400
C949        C  0.89931464  0.41010173  0.35749316    -0.06900
C950        C  0.88534768  0.39587612  0.34838264     0.13900
C951        C  0.85951226  0.38841806  0.35658765    -0.23800
H952        H  0.88564947  0.37706060  0.32458369     0.15200
H953        H  0.93520489  0.42623108  0.35699814     0.15300
C954        C  0.96274416  0.41340622  0.32625256    -0.23700
H955        H  0.85317575  0.37613183  0.34878046     0.05500
H956        H  0.84295156  0.39812392  0.35496622     0.08700
H957        H  0.86226783  0.38501735  0.37223269     0.08700
H958        H  0.96121728  0.41984724  0.31177232     0.08700
H959        H  0.97643983  0.40178566  0.32534448     0.08700
H960        H  0.97196104  0.42323611  0.33640501     0.05500
C961        C  0.46490367  0.50605653  0.49731366    -0.20300
C962        C  0.48030393  0.49388238  0.48654020    -0.06900
C963        C  0.47684913  0.47546057  0.48977625     0.14000
C964        C  0.45808536  0.46971528  0.50376902    -0.20400
C965        C  0.44248673  0.48189096  0.51438836    -0.06900
C966        C  0.44617077  0.50031132  0.51131863     0.13900
C967        C  0.43127702  0.51397329  0.52327773    -0.23800
H968        H  0.46781424  0.52016760  0.49490570     0.15200
H969        H  0.45521581  0.45560660  0.50622214     0.15300
C970        C  0.49196696  0.46179126  0.47797862    -0.23700
H971        H  0.43803223  0.52769442  0.51983281     0.05500
H972        H  0.43491766  0.51163801  0.53907354     0.08700
H973        H  0.40938135  0.51323103  0.52021817     0.08700
H974        H  0.51384764  0.46270918  0.48105112     0.08700
H975        H  0.48831954  0.46395932  0.46215655     0.08700
H976        H  0.48541891  0.44805750  0.48157093     0.05500
C977        C  0.95337131  0.46985709  0.50512014    -0.20300
C978        C  0.93865350  0.48305321  0.49538807    -0.06900
C979        C  0.94263249  0.50109672  0.50061236     0.14000
C980        C  0.96136514  0.50540320  0.51526687    -0.20400
C981        C  0.97646011  0.49223974  0.52470755    -0.06900
C982        C  0.97207168  0.47418679  0.51981230     0.13900
C983        C  0.98620893  0.45939005  0.53045963    -0.23800
H984        H  0.95010213  0.45603801  0.50124617     0.15200
H985        H  0.96474083  0.51922638  0.51907545     0.15300
C986        C  0.92834507  0.51599388  0.49022915    -0.23700
H987        H  0.97874219  0.44612174  0.52575274     0.05500
H988        H  0.98263971  0.46067026  0.54641890     0.08700
H989        H  0.00812587  0.45980725  0.52746393     0.08700
H990        H  0.90650411  0.51559837  0.49350709     0.08700
H991        H  0.93162400  0.51487996  0.47422525     0.08700
H992        H  0.93589316  0.52922470  0.49499506     0.05500
C993        C  0.19000942  0.47754331  0.57921313    -0.20300
C994        C  0.18637039  0.49598078  0.57798229    -0.06900
C995        C  0.20914333  0.50718997  0.57620306     0.14000
C996        C  0.23501503  0.49964602  0.57603170    -0.20400
C997        C  0.23868063  0.48123784  0.57786894    -0.06900
C998        C  0.21586905  0.47002031  0.57931331     0.13900
C999        C  0.21855415  0.45009595  0.58023011    -0.23800
H1000       H  0.17247012  0.46898688  0.58034011     0.15200
H1001       H  0.25254256  0.50818020  0.57463081     0.15300
C1002       C  0.20628491  0.52699357  0.57375491    -0.23700
H1003       H  0.19858880  0.44339092  0.58000979     0.05500
H1004       H  0.22882916  0.44616683  0.59392051     0.08700
H1005       H  0.23025677  0.44525066  0.56746431     0.08700
H1006       H  0.19717128  0.53294299  0.58702099     0.08700
H1007       H  0.19338561  0.52986037  0.56089125     0.08700
H1008       H  0.22610388  0.53354760  0.57142770     0.05500
C1009       C  0.01237742  0.73701047  0.75124632    -0.20300
C1010       C  0.98594306  0.73041069  0.75144838    -0.06900
C1011       C  0.96401679  0.74232908  0.75138028     0.14000
C1012       C  0.96911801  0.76066713  0.75090947    -0.20400
C1013       C  0.99556326  0.76727238  0.75095895    -0.06900
C1014       C  0.01747755  0.75535262  0.75119617     0.13900
C1015       C  0.04617285  0.76191632  0.75074234    -0.23800
H1016       H  0.02907817  0.72774736  0.75120529     0.15200
H1017       H  0.95241443  0.76992326  0.75060391     0.15300
C1018       C  0.93531569  0.73575159  0.75120244    -0.23700
H1019       H  0.06077283  0.75075532  0.75032284     0.05500
H1020       H  0.05047575  0.76994720  0.76400347     0.08700
H1021       H  0.04942979  0.77019809  0.73754847     0.08700
H1022       H  0.93108516  0.72815323  0.76472693     0.08700
H1023       H  0.93198715  0.72704589  0.73829259     0.08700
H1024       H  0.92070939  0.74689297  0.75046000     0.05500
C1025       C  0.02807866  0.58444556  0.68543549    -0.20300
C1026       C  0.01254310  0.59934541  0.68057658    -0.06900
C1027       C  0.00540358  0.60223658  0.66083620     0.14000
C1028       C  0.01443434  0.59028320  0.64647322    -0.20400
C1029       C  0.03049012  0.57560777  0.65130699    -0.06900
C1030       C  0.03716850  0.57253936  0.67110160     0.13900
C1031       C  0.05271058  0.55635309  0.67742119    -0.23800
H1032       H  0.03315797  0.58210151  0.70061757     0.15200
H1033       H  0.00896123  0.59241170  0.63132611     0.15300
C1034       C  0.98732276  0.61733892  0.65486868    -0.23700
H1035       H  0.05392296  0.55535528  0.69359019     0.05500
H1036       H  0.07363618  0.55700068  0.67185368     0.08700
H1037       H  0.04264429  0.54414143  0.67188660     0.08700
H1038       H  0.99755163  0.63023123  0.65745625     0.08700
H1039       H  0.96823013  0.61681205  0.66330665     0.08700
H1040       H  0.98214701  0.61668032  0.63909028     0.05500
C1041       C  0.48382401  0.51226176  0.98845775    -0.20300
C1042       C  0.48323870  0.49390287  0.98473132    -0.06900
C1043       C  0.46393567  0.48324386  0.99450497     0.14000
C1044       C  0.44616418  0.49123431  0.00790611    -0.20400
C1045       C  0.44720777  0.50953883  0.01190791    -0.06900
C1046       C  0.46597983  0.52023734  0.00175292     0.13900
C1047       C  0.46666452  0.54014631  0.00420026    -0.23800
H1048       H  0.49832479  0.52047613  0.98080082     0.15200
H1049       H  0.43159657  0.48307869  0.01557963     0.15300
C1050       C  0.46254942  0.46339958  0.99161170    -0.23700
H1051       H  0.48105606  0.54647438  0.99390666     0.05500
H1052       H  0.47318951  0.54372338  0.01917878     0.08700
H1053       H  0.44637126  0.54574219  0.00131013     0.08700
H1054       H  0.48261568  0.45739961  0.99432117     0.08700
H1055       H  0.45574430  0.46025619  0.97657752     0.08700
H1056       H  0.44794821  0.45710426  0.00177658     0.05500
C1057       C  0.97906782  0.52014351  0.01910217    -0.20300
C1058       C  0.98188538  0.50164906  0.02043090    -0.06900
C1059       C  0.96672772  0.49046735  0.00794509     0.14000
C1060       C  0.94858093  0.49811433  0.99475185    -0.20400
C1061       C  0.94556216  0.51659966  0.99356943    -0.06900
C1062       C  0.96095125  0.52779325  0.00588355     0.13900
C1063       C  0.95757200  0.54769664  0.00577750    -0.23800
H1064       H  0.99083393  0.52863322  0.02870169     0.15200
H1065       H  0.93686807  0.48962633  0.98511466     0.15300
C1066       C  0.97035357  0.47058526  0.00786079    -0.23700
H1067       H  0.96993848  0.55421190  0.01729224     0.05500
H1068       H  0.93614382  0.55113485  0.00847861     0.08700
H1069       H  0.96404537  0.55320751  0.99153410     0.08700
H1070       H  0.96381208  0.46491477  0.02200780     0.08700
H1071       H  0.99185254  0.46729163  0.00523350     0.08700
H1072       H  0.95818974  0.46410282  0.99620767     0.05500
C1073       C  0.89184979  0.60162658  0.85093664    -0.20300
C1074       C  0.90762649  0.58814903  0.85915496    -0.06900
C1075       C  0.93313856  0.58421146  0.85100690     0.14000
C1076       C  0.94229055  0.59407460  0.83499929    -0.20400
C1077       C  0.92677605  0.60780246  0.82705014    -0.06900
C1078       C  0.90113403  0.61158474  0.83500654     0.13900
C1079       C  0.88295899  0.62548111  0.82628648    -0.23800
H1080       H  0.87214832  0.60439093  0.85706829     0.15200
H1081       H  0.96176083  0.59106852  0.82861591     0.15300
C1082       C  0.95032844  0.56915747  0.85840113    -0.23700
H1083       H  0.86291249  0.62568430  0.83349849     0.05500
H1084       H  0.87977398  0.62267823  0.81051386     0.08700
H1085       H  0.89198069  0.63886104  0.82813556     0.08700
H1086       H  0.93846741  0.55662814  0.85852647     0.08700
H1087       H  0.95782527  0.57216635  0.87329049     0.08700
H1088       H  0.96828347  0.56698994  0.84901041     0.05500
C1089       C  0.69621559  0.51215776  0.92984986    -0.20300
C1090       C  0.69345735  0.49366183  0.93140694    -0.06900
C1091       C  0.71673358  0.48290084  0.93233323     0.14000
C1092       C  0.74219624  0.49091405  0.93109346    -0.20400
C1093       C  0.74492655  0.50933481  0.92880476    -0.06900
C1094       C  0.72171319  0.52015187  0.92845852     0.13900
C1095       C  0.72371362  0.54010798  0.92733959    -0.23800
H1096       H  0.67829465  0.52035681  0.92940552     0.15200
H1097       H  0.76014096  0.48274601  0.93180939     0.15300
C1098       C  0.71494749  0.46309850  0.93539582    -0.23700
H1099       H  0.70360049  0.54648428  0.92836871     0.05500
H1100       H  0.73279829  0.54411711  0.91322863     0.08700
H1101       H  0.73628353  0.54520012  0.93957224     0.08700
H1102       H  0.70518627  0.45661490  0.92267313     0.08700
H1103       H  0.70316764  0.46024937  0.94882167     0.08700
H1104       H  0.73519359  0.45703471  0.93712511     0.05500
C1105       C  0.46637549  0.25379461  0.75325116    -0.20300
C1106       C  0.48937721  0.26463728  0.75353358    -0.06900
C1107       C  0.51520668  0.25676243  0.75387601     0.14000
C1108       C  0.51734695  0.23817899  0.75441738    -0.20400
C1109       C  0.49433345  0.22735681  0.75495505    -0.06900
C1110       C  0.46851601  0.23521400  0.75412835     0.13900
C1111       C  0.44324623  0.22407763  0.75359488    -0.23800
H1112       H  0.44664459  0.25992583  0.75271346     0.15200
H1113       H  0.53709034  0.23204302  0.75470807     0.15300
C1114       C  0.54052588  0.26784309  0.75307382    -0.23700
H1115       H  0.42493383  0.23238897  0.75190029     0.05500
H1116       H  0.44112502  0.21651870  0.76738779     0.08700
H1117       H  0.44409738  0.21468004  0.74106881     0.08700
H1118       H  0.54215691  0.27629655  0.76631451     0.08700
H1119       H  0.54019358  0.27638798  0.73987749     0.08700
H1120       H  0.55887565  0.25944209  0.75237808     0.05500
C1121       C  0.51832924  0.38781608  0.84219772    -0.20300
C1122       C  0.52711488  0.39322472  0.82367032    -0.06900
C1123       C  0.54485178  0.40787205  0.82203899     0.14000
C1124       C  0.55216715  0.41730289  0.83894975    -0.20400
C1125       C  0.54222647  0.41243712  0.85737660    -0.06900
C1126       C  0.52570301  0.39719232  0.85910206     0.13900
C1127       C  0.51667381  0.39026309  0.87869122    -0.23800
H1128       H  0.50527281  0.37629708  0.84342422     0.15200
H1129       H  0.56541090  0.42872974  0.83774499     0.15300
C1130       C  0.55696125  0.41321037  0.80272109    -0.23700
H1131       H  0.50602867  0.37731822  0.87729738     0.05500
H1132       H  0.50249810  0.39967731  0.88566685     0.08700
H1133       H  0.53443480  0.38825742  0.88830132     0.08700
H1134       H  0.54110561  0.41813935  0.79274047     0.08700
H1135       H  0.56728706  0.40164393  0.79597003     0.08700
H1136       H  0.57204076  0.42403171  0.80448245     0.05500
C1137       C  0.41197102  0.40469582  0.68469922    -0.20300
C1138       C  0.42542677  0.38862501  0.68097045    -0.06900
C1139       C  0.42879191  0.38295446  0.66134867     0.14000
C1140       C  0.41804804  0.39327008  0.64617252    -0.20400
C1141       C  0.40400887  0.40903469  0.65000585    -0.06900
C1142       C  0.40131141  0.41500045  0.66949732     0.13900
C1143       C  0.38845444  0.43260676  0.67432253    -0.23800
H1144       H  0.40982380  0.40926679  0.69965351     0.15200
H1145       H  0.42051375  0.38896121  0.63114581     0.15300
C1146       C  0.44464648  0.36657481  0.65605705    -0.23700
H1147       H  0.38984859  0.43572717  0.69016549     0.05500
H1148       H  0.36680330  0.43237846  0.67039345     0.08700
H1149       H  0.39879589  0.44341019  0.66620569     0.08700
H1150       H  0.43360388  0.35449116  0.66065457     0.08700
H1151       H  0.46481358  0.36704690  0.66306961     0.08700
H1152       H  0.44776354  0.36545821  0.64002855     0.05500
loop_ 
_geom_bond_atom_site_label_1 
_geom_bond_atom_site_label_2 
_geom_bond_distance 
_geom_bond_site_symmetry_2 
_ccdc_geom_bond_type 
N1            N2   1.321       .  A
N1            C5   1.343       .  A
N1           Cu9   2.063       .  S
N2            C3   1.344       .  A
N2           Cu8   2.068       .  S
C3            C4   1.384       .  A
C3            H6   1.081       .  S
C4            C5   1.382       .  A
C4         C1122   1.476       .  S
C5            H7   1.081       .  S
Cu8          N11   2.069       .  S
Cu9          N19   2.063       .  S
Cu10         N12   2.079       .  S
Cu10         N18   2.079       .  S
N11          N12   1.321       .  A
N11          C15   1.344       .  A
N12          C13   1.345       .  A
C13          C14   1.387       .  A
C13          H16   1.080       .  S
C14          C15   1.385       .  A
C14        C1138   1.486       .  S
C15          H17   1.082       .  S
N18          N19   1.322       .  A
N18          C22   1.346       .  A
N19          C20   1.343       .  A
C20          C21   1.381       .  A
C20          H23   1.081       .  S
C21          C22   1.384       .  A
C21        C1106   1.475       .  S
C22          H24   1.083       .  S
N25          N26   1.322       .  A
N25          C29   1.345       .  A
N25         Cu33   2.074       .  S
N26          C27   1.340       .  A
N26         Cu32   2.054       .  S
C27          C28   1.379       .  A
C27          H30   1.080       .  S
C28          C29   1.384       .  A
C28        C1074   1.474       .  S
C29          H31   1.082       .  S
Cu32         N35   2.054       .  S
Cu33         N43   2.075       .  S
Cu34         N36   2.059       .  S
Cu34         N42   2.060       .  S
N35          N36   1.319       .  A
N35          C39   1.342       .  A
N36          C37   1.342       .  A
C37          C38   1.382       .  A
C37          H40   1.082       .  S
C38          C39   1.382       .  A
C38        C1061   1.471       .  S
C39          H41   1.080       .  S
N42          N43   1.322       .  A
N42          C46   1.341       .  A
N43          C44   1.346       .  A
C44          C45   1.384       .  A
C44          H47   1.081       .  S
C45          C46   1.379       .  A
C45        C1093   1.473       .  S
C46          H48   1.081       .  S
N49          N50   1.321       .  A
N49          C53   1.343       .  A
N49         Cu57   2.059       .  S
N50          C51   1.343       .  A
N50         Cu56   2.073       .  S
C51          C52   1.384       .  A
C51          H54   1.080       .  S
C52          C53   1.382       .  A
C52        C1125   1.476       .  S
C53          H55   1.082       .  S
Cu56         N59   2.074       .  S
Cu57         N67   2.058       .  S
Cu58         N60   2.081       .  S
Cu58         N66   2.080       .  S
N59          N60   1.322       .  A
N59          C63   1.346       .  A
N60          C61   1.344       .  A
C61          C62   1.386       .  A
C61          H64   1.082       .  S
C62          C63   1.387       .  A
C62        C1042   1.487       .  S
C63          H65   1.080       .  S
N66          N67   1.322       .  A
N66          C70   1.346       .  A
N67          C68   1.342       .  A
C68          C69   1.380       .  A
C68          H71   1.082       .  S
C69          C70   1.385       .  A
C69        C1090   1.475       .  S
C70          H72   1.082       .  S
N73          N74   1.321       .  A
N73          C77   1.346   1_655  A
N73         Cu81   2.075       .  S
N74          C75   1.341       .  A
N74         Cu80   2.060       .  S
C75          C76   1.382   1_655  A
C75          H78   1.082       .  S
C76          C77   1.386       .  A
C76        C1026   1.479       .  S
C77          H79   1.081       .  S
Cu80         N83   2.060       .  S
Cu81         N91   2.075       .  S
Cu82         N84   2.065       .  S
Cu82         N90   2.066       .  S
N83          N84   1.321       .  A
N83          C87   1.342       .  A
N84          C85   1.344       .  A
C85          C86   1.383       .  A
C85          H88   1.081       .  S
C86          C87   1.381       .  A
C86        C1077   1.473       .  S
C87          H89   1.082       .  S
N90          N91   1.323       .  A
N90          C94   1.344       .  A
N91          C92   1.344       .  A
C92          C93   1.381       .  A
C92          H95   1.082   1_655  S
C93          C94   1.380       .  A
C93        C1010   1.472       .  S
C94          H96   1.082       .  S
N97          N98   1.322       .  A
N97         C101   1.345       .  A
N97        Cu105   2.078       .  S
N98          C99   1.345   1_455  A
N98        Cu104   2.074       .  S
C99         C100   1.384       .  A
C99         H102   1.082       .  S
C100        C101   1.385   1_655  A
C100        C981   1.482       .  S
C101        H103   1.081       .  S
Cu104       N107   2.073       .  S
Cu105       N115   2.078       .  S
Cu106       N108   2.070       .  S
Cu106       N114   2.071       .  S
N107        N108   1.322       .  A
N107        C111   1.345       .  A
N108        C109   1.344       .  A
C109        C110   1.384       .  A
C109        H112   1.081       .  S
C110        C111   1.384       .  A
C110       C1029   1.479       .  S
C111        H113   1.082       .  S
N114        N115   1.322       .  A
N114        C118   1.345       .  A
N115        C116   1.345       .  A
C116        C117   1.385       .  A
C116        H119   1.082       .  S
C117        C118   1.383       .  A
C117        C994   1.479       .  S
C118        H120   1.082       .  S
N121        N122   1.322       .  A
N121        C125   1.345       .  A
N121       Cu129   2.075       .  S
N122        C123   1.344       .  A
N122       Cu128   2.071       .  S
C123        C124   1.383       .  A
C123        H126   1.082       .  S
C124        C125   1.384       .  A
C124       C1141   1.478       .  S
C125        H127   1.082       .  S
Cu128       N131   2.071       .  S
Cu129       N139   2.075       .  S
Cu130       N132   2.076       .  S
Cu130       N138   2.076       .  S
N131        N132   1.322       .  A
N131        C135   1.345       .  A
N132        C133   1.345       .  A
C133        C134   1.384       .  A
C133        H136   1.082       .  S
C134        C135   1.383       .  A
C134        C965   1.478       .  S
C135        H137   1.082       .  S
N138        N139   1.322       .  A
N138        C142   1.345       .  A
N139        C140   1.345       .  A
C140        C141   1.384       .  A
C140        H143   1.081       .  S
C141        C142   1.384       .  A
C141        C997   1.480       .  S
C142        H144   1.081       .  S
N145        N146   1.321       .  A
N145        C149   1.344       .  A
N145       Cu153   2.068       .  S
N146        C147   1.344       .  A
N146       Cu152   2.071       .  S
C147        C148   1.385       .  A
C147        H150   1.081       .  S
C148        C149   1.384       .  A
C148        C946   1.480       .  S
C149        H151   1.082       .  S
Cu152       N155   2.071       .  S
Cu153       N163   2.068       .  S
Cu154       N156   2.071       .  S
Cu154       N162   2.071       .  S
N155        N156   1.322       .  A
N155        C159   1.343       .  A
N156        C157   1.345   1_655  A
C157        C158   1.384       .  A
C157        H160   1.082       .  S
C158        C159   1.384   1_455  A
C158        C930   1.479       .  S
C159        H161   1.081       .  S
N162        N163   1.323       .  A
N162        C166   1.344       .  A
N163        C164   1.344       .  A
C164        C165   1.381       .  A
C164        H167   1.082       .  S
C165        C166   1.381       .  A
C165        C914   1.471       .  S
C166        H168   1.082       .  S
N169        N170   1.322       .  A
N169        C173   1.344       .  A
N169       Cu177   2.073       .  S
N170        C171   1.346       .  A
N170       Cu176   2.084       .  S
C171        C172   1.388       .  A
C171        H174   1.080       .  S
C172        C173   1.385       .  A
C172        C885   1.486       .  S
C173        H175   1.082       .  S
Cu176       N179   2.085       .  S
Cu177       N187   2.073       .  S
Cu178       N180   2.073       .  S
Cu178       N186   2.073       .  S
N179        N180   1.322       .  A
N179        C183   1.346       .  A
N180        C181   1.345       .  A
C181        C182   1.384       .  A
C181        H184   1.082       .  S
C182        C183   1.387       .  A
C182       C1045   1.485       .  S
C183        H185   1.081       .  S
N186        N187   1.322       .  A
N186        C190   1.345       .  A
N187        C188   1.344       .  A
C188        C189   1.383       .  A
C188        H191   1.082       .  S
C189        C190   1.384       .  A
C189        C901   1.478       .  S
C190        H192   1.081       .  S
N193        N194   1.323       .  A
N193        C197   1.344       .  A
N193       Cu201   2.077       .  S
N194        C195   1.345       .  A
N194       Cu200   2.071       .  S
C195        C196   1.384       .  A
C195        H198   1.082       .  S
C196        C197   1.384       .  A
C196        C933   1.478       .  S
C197        H199   1.082       .  S
Cu200       N203   2.070       .  S
Cu201       N211   2.077       .  S
Cu202       N204   2.060       .  S
Cu202       N210   2.061       .  S
N203        N204   1.322       .  A
N203        C207   1.344   1_455  A
N204        C205   1.342       .  A
C205        C206   1.380       .  A
C205        H208   1.082       .  S
C206        C207   1.383   1_455  A
C206       C1058   1.472   1_455  S
C207        H209   1.082       .  S
N210        N211   1.321       .  A
N210        C214   1.343       .  A
N211        C212   1.346       .  A
C212        C213   1.385       .  A
C212        H215   1.081       .  S
C213        C214   1.382       .  A
C213        C898   1.479       .  S
C214        H216   1.081       .  S
N217        N218   1.321       .  A
N217        C221   1.346       .  A
N217       Cu225   2.080       .  S
N218        C219   1.345       .  A
N218       Cu224   2.070       .  S
C219        C220   1.385       .  A
C219        H222   1.080       .  S
C220        C221   1.386       .  A
C220        C882   1.484       .  S
C221        H223   1.081       .  S
Cu224       N227   2.069       .  S
Cu225       N235   2.081       .  S
Cu226       N228   2.076       .  S
Cu226       N234   2.076       .  S
N227        N228   1.321       .  A
N227        C231   1.342       .  A
N228        C229   1.347       .  A
C229        C230   1.386       .  A
C229        H232   1.082       .  S
C230        C231   1.383       .  A
C230        C866   1.480       .  S
C231        H233   1.082       .  S
N234        N235   1.323       .  A
N234        C238   1.344       .  A
N235        C236   1.347       .  A
C236        C237   1.385       .  A
C236        H239   1.081       .  S
C237        C238   1.383       .  A
C237        C850   1.480       .  S
C238        H240   1.083       .  S
N241        N242   1.322       .  A
N241        C245   1.344       .  A
N241       Cu249   2.069       .  S
N242        C243   1.345       .  A
N242       Cu248   2.083       .  S
C243        C244   1.387       .  A
C243        H246   1.082       .  S
C244        C245   1.384       .  A
C244        C949   1.484       .  S
C245        H247   1.080       .  S
Cu248       N251   2.083       .  S
Cu249       N259   2.069       .  S
Cu250       N252   2.064       .  S
Cu250       N258   2.063       .  S
N251        N252   1.321       .  A
N251        C255   1.346       .  A
N252        C253   1.343       .  A
C253        C254   1.383       .  A
C253        H256   1.080       .  S
C254        C255   1.387       .  A
C254        C978   1.483       .  S
C255        H257   1.082       .  S
N258        N259   1.321       .  A
N258        C262   1.342       .  A
N259        C260   1.345       .  A
C260        C261   1.384       .  A
C260        H263   1.082       .  S
C261        C262   1.381       .  A
C261        C834   1.475       .  S
C262        H264   1.082       .  S
N265        N266   1.323       .  A
N265        C269   1.342       .  A
N265       Cu273   2.065       .  S
N266        C267   1.347       .  A
N266       Cu272   2.082       .  S
C267        C268   1.385       .  A
C267        H270   1.082       .  S
C268        C269   1.381       .  A
C268        C869   1.478       .  S
C269        H271   1.082       .  S
Cu272       N275   2.082       .  S
Cu273       N283   2.064       .  S
Cu274       N276   2.068       .  S
Cu274       N282   2.067       .  S
N275        N276   1.323       .  A
N275        C279   1.346       .  A
N276        C277   1.344       .  A
C277        C278   1.382       .  A
C277        H280   1.082       .  S
C278        C279   1.385       .  A
C278        C962   1.479       .  S
C279        H281   1.082       .  S
N282        N283   1.320       .  A
N282        C286   1.343       .  A
N283        C284   1.344       .  A
C284        C285   1.384       .  A
C284        H287   1.081       .  S
C285        C286   1.384       .  A
C285        C837   1.477       .  S
C286        H288   1.081       .  S
N289        N290   1.321       .  A
N289        C293   1.343       .  A
N289       Cu297   2.066       .  S
N290        C291   1.343       .  A
N290       Cu296   2.066       .  S
C291        C292   1.384       .  A
C291        H294   1.079       .  S
C292        C293   1.384       .  A
C292        C805   1.479       .  S
C293        H295   1.081       .  S
Cu296       N299   2.066   1_655  S
Cu297       N307   2.066       .  S
Cu298       N300   2.064       .  S
Cu298       N306   2.065   1_455  S
N299        N300   1.321       .  A
N299        C303   1.342       .  A
N300        C301   1.344       .  A
C301        C302   1.384       .  A
C301        H304   1.083       .  S
C302        C303   1.383       .  A
C302        C818   1.477       .  S
C303        H305   1.083       .  S
N306        N307   1.322       .  A
N306        C310   1.343       .  A
N307        C308   1.344       .  A
C308        C309   1.382       .  A
C308        H311   1.081       .  S
C309        C310   1.381       .  A
C309        C917   1.473       .  S
C310        H312   1.082   1_655  S
N313        N314   1.322       .  A
N313        C317   1.344       .  A
N313       Cu321   2.061       .  S
N314        C315   1.342       .  A
N314       Cu320   2.068       .  S
C315        C316   1.381       .  A
C315        H318   1.082       .  S
C316        C317   1.382       .  A
C316        C821   1.473       .  S
C317        H319   1.081       .  S
Cu320       N323   2.068       .  S
Cu321       N331   2.061       .  S
Cu322       N324   2.070       .  S
Cu322       N330   2.070       .  S
N323        N324   1.321       .  A
N323        C327   1.344       .  A
N324        C325   1.344       .  A
C325        C326   1.383       .  A
C325        H328   1.081       .  S
C326        C327   1.384       .  A
C326        C773   1.479       .  S
C327        H329   1.081       .  S
N330        N331   1.321       .  A
N330        C334   1.344       .  A
N331        C332   1.342       .  A
C332        C333   1.383       .  A
C332        H335   1.080       .  S
C333        C334   1.384       .  A
C333        C789   1.477       .  S
C334        H336   1.081       .  S
N337        N338   1.322       .  A
N337        C341   1.345       .  A
N337       Cu345   2.069       .  S
N338        C339   1.343       .  A
N338       Cu344   2.076       .  S
C339        C340   1.384       .  A
C339        H342   1.081       .  S
C340        C341   1.385       .  A
C340        C754   1.480       .  S
C341        H343   1.082       .  S
Cu344       N347   2.076       .  S
Cu345       N355   2.069       .  S
Cu346       N348   2.065       .  S
Cu346       N354   2.065       .  S
N347        N348   1.321       .  A
N347        C351   1.345       .  A
N348        C349   1.344   1_565  A
C349        C350   1.383   1_545  A
C349        H352   1.081       .  S
C350        C351   1.385       .  A
C350        C738   1.479   1_565  S
C351        H353   1.082       .  S
N354        N355   1.322       .  A
N354        C358   1.343   1_565  A
N355        C356   1.343       .  A
C356        C357   1.383       .  A
C356        H359   1.081       .  S
C357        C358   1.382   1_565  A
C357        C786   1.475   1_565  S
C358        H360   1.082       .  S
N361        N362   1.322       .  A
N361        C365   1.347       .  A
N361       Cu369   2.078       .  S
N362        C363   1.343       .  A
N362       Cu368   2.072       .  S
C363        C364   1.383       .  A
C363        H366   1.081       .  S
C364        C365   1.385       .  A
C364        C757   1.480       .  S
C365        H367   1.082       .  S
Cu368       N371   2.072       .  S
Cu369       N379   2.078       .  S
Cu370       N372   2.078       .  S
Cu370       N378   2.078       .  S
N371        N372   1.322       .  A
N371        C375   1.345       .  A
N372        C373   1.345       .  A
C373        C374   1.385       .  A
C373        H376   1.082       .  S
C374        C375   1.385       .  A
C374        C725   1.482       .  S
C375        H377   1.081       .  S
N378        N379   1.323       .  A
N378        C382   1.346       .  A
N379        C380   1.346       .  A
C380        C381   1.382       .  A
C380        H383   1.082       .  S
C381        C382   1.383       .  A
C381        C853   1.478       .  S
C382        H384   1.082       .  S
N385        N386   1.323       .  A
N385        C389   1.345       .  A
N385       Cu393   2.083       .  S
N386        C387   1.345       .  A
N386       Cu392   2.071       .  S
C387        C388   1.384       .  A
C387        H390   1.081       .  S
C388        C389   1.385       .  A
C388        C693   1.482       .  S
C389        H391   1.082   1_545  S
Cu392       N395   2.070       .  S
Cu393       N403   2.083       .  S
Cu394       N396   2.065       .  S
Cu394       N402   2.066       .  S
N395        N396   1.321       .  A
N395        C399   1.343       .  A
N396        C397   1.343       .  A
C397        C398   1.384       .  A
C397        H400   1.081       .  S
C398        C399   1.385       .  A
C398        C802   1.479       .  S
C399        H401   1.082       .  S
N402        N403   1.322       .  A
N402        C406   1.343       .  A
N403        C404   1.347       .  A
C404        C405   1.386       .  A
C404        H407   1.082   1_545  S
C405        C406   1.383       .  A
C405        C706   1.481   1_545  S
C406        H408   1.081       .  S
N409        N410   1.321       .  A
N409        C413   1.344       .  A
N409       Cu417   2.072       .  S
N410        C411   1.346       .  A
N410       Cu416   2.077       .  S
C411        C412   1.387       .  A
C411        H414   1.080       .  S
C412        C413   1.384       .  A
C412        C674   1.484       .  S
C413        H415   1.082       .  S
Cu416       N419   2.078       .  S
Cu417       N427   2.072       .  S
Cu418       N420   2.079       .  S
Cu418       N426   2.079       .  S
N419        N420   1.323       .  A
N419        C423   1.346       .  A
N420        C421   1.345       .  A
C421        C422   1.384       .  A
C421        H424   1.082       .  S
C422        C423   1.384       .  A
C422        C722   1.480       .  S
C423        H425   1.081       .  S
N426        N427   1.321       .  A
N426        C430   1.346       .  A
N427        C428   1.344       .  A
C428        C429   1.384       .  A
C428        H431   1.081       .  S
C429        C430   1.387       .  A
C429        C709   1.484       .  S
C430        H432   1.081       .  S
N433        N434   1.321       .  A
N433        C437   1.345       .  A
N433       Cu441   2.074       .  S
N434        C435   1.345       .  A
N434       Cu440   2.074       .  S
C435        C436   1.386       .  A
C435        H438   1.080       .  S
C436        C437   1.385       .  A
C436        C658   1.483       .  S
C437        H439   1.082       .  S
Cu440       N443   2.074       .  S
Cu441       N451   2.074       .  S
Cu442       N444   2.070       .  S
Cu442       N450   2.070       .  S
N443        N444   1.322       .  A
N443        C447   1.344       .  A
N444        C445   1.344       .  A
C445        C446   1.384       .  A
C445        H448   1.081       .  S
C446        C447   1.384       .  A
C446        C645   1.480       .  S
C447        H449   1.082       .  S
N450        N451   1.322       .  A
N450        C454   1.344       .  A
N451        C452   1.345       .  A
C452        C453   1.382       .  A
C452        H455   1.082       .  S
C453        C454   1.382       .  A
C453       C1109   1.475       .  S
C454        H456   1.082       .  S
N457        N458   1.322       .  A
N457        C461   1.345       .  A
N457       Cu465   2.072       .  S
N458        C459   1.344       .  A
N458       Cu464   2.072       .  S
C459        C460   1.383       .  A
C459        H462   1.082       .  S
C460        C461   1.384       .  A
C460        C642   1.479       .  S
C461        H463   1.081       .  S
Cu464       N467   2.072       .  S
Cu465       N475   2.072       .  S
Cu466       N468   2.079       .  S
Cu466       N474   2.079       .  S
N467        N468   1.322       .  A
N467        C471   1.345       .  A
N468        C469   1.345       .  A
C469        C470   1.384       .  A
C469        H472   1.082   1_545  S
C470        C471   1.384       .  A
C470        C677   1.481       .  S
C471        H473   1.081       .  S
N474        N475   1.322       .  A
N474        C478   1.346       .  A
N475        C476   1.344       .  A
C476        C477   1.385       .  A
C476        H479   1.080       .  S
C477        C478   1.386       .  A
C477        C626   1.483       .  S
C478        H480   1.081   1_545  S
N481        N482   1.323       .  A
N481        C485   1.345       .  A
N481       Cu489   2.074       .  S
N482        C483   1.347       .  A
N482       Cu488   2.084       .  S
C483        C484   1.386       .  A
C483        H486   1.082       .  S
C484        C485   1.384       .  A
C484        C610   1.483       .  S
C485        H487   1.081       .  S
Cu488       N491   2.084       .  S
Cu489       N499   2.073       .  S
Cu490       N492   2.068       .  S
Cu490       N498   2.068       .  S
N491        N492   1.323       .  A
N491        C495   1.346       .  A
N492        C493   1.344       .  A
C493        C494   1.381       .  A
C493        H496   1.083       .  S
C494        C495   1.386       .  A
C494        C690   1.480       .  S
C495        H497   1.081       .  S
N498        N499   1.321       .  A
N498        C502   1.344       .  A
N499        C500   1.345       .  A
C500        C501   1.384       .  A
C500        H503   1.082       .  S
C501        C502   1.383       .  A
C501        C629   1.478       .  S
C502        H504   1.082       .  S
N505        N506   1.322       .  A
N505        C509   1.345       .  A
N505       Cu513   2.074       .  S
N506        C507   1.346       .  A
N506       Cu512   2.079       .  S
C507        C508   1.387       .  A
C507        H510   1.081       .  S
C508        C509   1.385       .  A
C508        C613   1.485       .  S
C509        H511   1.079       .  S
Cu512       N515   2.078   1_455  S
Cu513       N523   2.074       .  S
Cu514       N516   2.064       .  S
Cu514       N522   2.063       .  S
N515        N516   1.322       .  A
N515        C519   1.343       .  A
N516        C517   1.344       .  A
C517        C518   1.383       .  A
C517        H520   1.081       .  S
C518        C519   1.385       .  A
C518        C594   1.480       .  S
C519        H521   1.082       .  S
N522        N523   1.322   1_655  A
N522        C526   1.343       .  A
N523        C524   1.345       .  A
C524        C525   1.382   1_455  A
C524        H527   1.082       .  S
C525        C526   1.380       .  A
C525       C1013   1.472       .  S
C526        H528   1.083       .  S
N529        N530   1.322       .  A
N529        C533   1.343       .  A
N529       Cu537   2.070       .  S
N530        C531   1.345       .  A
N530       Cu536   2.073       .  S
C531        C532   1.384       .  A
C531        H534   1.082       .  S
C532        C533   1.383       .  A
C532        C597   1.479       .  S
C533        H535   1.081       .  S
Cu536       N539   2.072       .  S
Cu537       N547   2.070       .  S
Cu538       N540   2.067       .  S
Cu538       N546   2.066       .  S
N539        N540   1.322       .  A
N539        C543   1.345       .  A
N540        C541   1.344       .  A
C541        C542   1.381       .  A
C541        H544   1.081   1_565  S
C542        C543   1.384       .  A
C542        C770   1.476       .  S
C543        H545   1.081       .  S
N546        N547   1.321       .  A
N546        C550   1.343       .  A
N547        C548   1.345       .  A
C548        C549   1.384       .  A
C548        H551   1.082       .  S
C549        C550   1.382       .  A
C549        C578   1.477       .  S
C550        H552   1.081   1_565  S
N553        N554   1.322       .  A
N553        C557   1.344       .  A
N553       Cu561   2.072       .  S
N554        C555   1.345       .  A
N554       Cu560   2.080       .  S
C555        C556   1.387       .  A
C555        H558   1.080       .  S
C556        C557   1.385       .  A
C556        C661   1.486       .  S
C557        H559   1.082       .  S
Cu560       N563   2.080       .  S
Cu561       N571   2.072       .  S
Cu562       N564   2.064       .  S
Cu562       N570   2.064       .  S
N563        N564   1.321       .  A
N563        C567   1.346       .  A
N564        C565   1.343       .  A
C565        C566   1.383       .  A
C565        H568   1.081       .  S
C566        C567   1.386       .  A
C566        C741   1.481       .  S
C567        H569   1.082       .  S
N570        N571   1.321       .  A
N570        C574   1.344       .  A
N571        C572   1.344       .  A
C572        C573   1.384       .  A
C572        H575   1.083       .  S
C573        C574   1.383       .  A
C573        C581   1.477       .  S
C574        H576   1.081   1_545  S
C577        C578   1.403       .  A
C577        C582   1.404       .  A
C577        H584   1.084       .  S
C578        C579   1.414   1_565  A
C579        C580   1.402       .  A
C579        C586   1.508       .  S
C580        C581   1.402       .  A
C580        H585   1.084       .  S
C581        C582   1.415   1_545  A
C582        C583   1.507       .  S
C583        H587   1.111       .  S
C583        H588   1.108       .  S
C583        H589   1.110       .  S
C586        H590   1.108       .  S
C586        H591   1.110       .  S
C586        H592   1.111       .  S
C593        C594   1.402       .  A
C593        C598   1.401       .  A
C593        H600   1.084       .  S
C594        C595   1.416       .  A
C595        C596   1.405       .  A
C595        C602   1.507       .  S
C596        C597   1.404       .  A
C596        H601   1.085       .  S
C597        C598   1.414       .  A
C598        C599   1.508       .  S
C599        H603   1.111       .  S
C599        H604   1.107       .  S
C599        H605   1.110       .  S
C602        H606   1.107       .  S
C602        H607   1.110   1_655  S
C602        H608   1.111       .  S
C609        C610   1.403       .  A
C609        C614   1.406       .  A
C609        H616   1.084       .  S
C610        C611   1.416       .  A
C611        C612   1.405       .  A
C611        C618   1.507       .  S
C612        C613   1.403       .  A
C612        H617   1.084       .  S
C613        C614   1.417       .  A
C614        C615   1.507       .  S
C615        H619   1.111       .  S
C615        H620   1.107       .  S
C615        H621   1.110       .  S
C618        H622   1.107       .  S
C618        H623   1.110       .  S
C618        H624   1.111       .  S
C625        C626   1.404   1_565  A
C625        C630   1.404       .  A
C625        H632   1.084       .  S
C626        C627   1.416       .  A
C627        C628   1.404       .  A
C627        C634   1.507       .  S
C628        C629   1.402   1_545  A
C628        H633   1.084       .  S
C629        C630   1.413       .  A
C630        C631   1.507       .  S
C631        H635   1.111       .  S
C631        H636   1.108       .  S
C631        H637   1.111       .  S
C634        H638   1.107       .  S
C634        H639   1.110       .  S
C634        H640   1.111       .  S
C641        C642   1.403       .  A
C641        C646   1.403       .  A
C641        H648   1.084       .  S
C642        C643   1.414       .  A
C643        C644   1.404       .  A
C643        C650   1.507       .  S
C644        C645   1.403       .  A
C644        H649   1.084       .  S
C645        C646   1.415       .  A
C646        C647   1.507       .  S
C647        H651   1.111       .  S
C647        H652   1.107       .  S
C647        H653   1.110       .  S
C650        H654   1.108       .  S
C650        H655   1.110       .  S
C650        H656   1.111       .  S
C657        C658   1.404       .  A
C657        C662   1.405       .  A
C657        H664   1.084       .  S
C658        C659   1.414       .  A
C659        C660   1.404       .  A
C659        C666   1.508       .  S
C660        C661   1.405       .  A
C660        H665   1.083       .  S
C661        C662   1.416       .  A
C662        C663   1.507       .  S
C663        H667   1.111       .  S
C663        H668   1.107       .  S
C663        H669   1.110       .  S
C666        H670   1.107       .  S
C666        H671   1.110       .  S
C666        H672   1.111       .  S
C673        C674   1.404       .  A
C673        C678   1.404   1_554  A
C673        H680   1.084       .  S
C674        C675   1.415   1_565  A
C675        C676   1.405       .  A
C675        C682   1.507       .  S
C676        C677   1.403   1_554  A
C676        H681   1.084       .  S
C677        C678   1.414   1_545  A
C678        C679   1.507       .  S
C679        H683   1.111       .  S
C679        H684   1.108   1_565  S
C679        H685   1.110       .  S
C682        H686   1.110       .  S
C682        H687   1.107   1_545  S
C682        H688   1.111       .  S
C689        C690   1.403   1_545  A
C689        C694   1.406   1_556  A
C689        H696   1.084       .  S
C690        C691   1.413   1_556  A
C691        C692   1.403   1_455  A
C691        C698   1.507       .  S
C692        C693   1.403   1_565  A
C692        H697   1.084       .  S
C693        C694   1.416   1_655  A
C694        C695   1.507   1_455  S
C695        H699   1.111   1_654  S
C695        H700   1.108   1_655  S
C695        H701   1.110       .  S
C698        H702   1.111       .  S
C698        H703   1.107   1_554  S
C698        H704   1.111   1_455  S
C705        C706   1.403       .  A
C705        C710   1.406       .  A
C705        H712   1.084       .  S
C706        C707   1.415   1_565  A
C707        C708   1.404       .  A
C707        C714   1.508       .  S
C708        C709   1.404   1_545  A
C708        H713   1.084       .  S
C709        C710   1.415       .  A
C710        C711   1.507       .  S
C711        H715   1.111       .  S
C711        H716   1.110       .  S
C711        H717   1.107       .  S
C714        H718   1.110       .  S
C714        H719   1.107       .  S
C714        H720   1.111       .  S
C721        C722   1.403       .  A
C721        C726   1.404       .  A
C721        H728   1.084       .  S
C722        C723   1.414       .  A
C723        C724   1.404       .  A
C723        C730   1.507       .  S
C724        C725   1.404       .  A
C724        H729   1.084       .  S
C725        C726   1.415       .  A
C726        C727   1.507       .  S
C727        H731   1.111       .  S
C727        H732   1.110       .  S
C727        H733   1.108       .  S
C730        H734   1.110       .  S
C730        H735   1.108       .  S
C730        H736   1.111       .  S
C737        C738   1.402   1_565  A
C737        C742   1.403       .  A
C737        H744   1.084       .  S
C738        C739   1.414       .  A
C739        C740   1.405       .  A
C739        C746   1.507       .  S
C740        C741   1.403       .  A
C740        H745   1.084       .  S
C741        C742   1.415   1_545  A
C742        C743   1.508       .  S
C743        H747   1.111       .  S
C743        H748   1.110       .  S
C743        H749   1.107       .  S
C746        H750   1.107       .  S
C746        H751   1.110       .  S
C746        H752   1.111       .  S
C753        C754   1.403       .  A
C753        C758   1.403       .  A
C753        H760   1.084       .  S
C754        C755   1.415       .  A
C755        C756   1.405       .  A
C755        C762   1.507       .  S
C756        C757   1.403       .  A
C756        H761   1.084       .  S
C757        C758   1.414       .  A
C758        C759   1.508       .  S
C759        H763   1.111       .  S
C759        H764   1.111       .  S
C759        H765   1.107       .  S
C762        H766   1.111       .  S
C762        H767   1.107       .  S
C762        H768   1.111       .  S
C769        C770   1.402       .  A
C769        C774   1.404   1_565  A
C769        H776   1.085       .  S
C770        C771   1.413   1_665  A
C771        C772   1.403       .  A
C771        C778   1.507       .  S
C772        C773   1.403       .  A
C772        H777   1.084       .  S
C773        C774   1.415   1_455  A
C774        C775   1.507   1_545  S
C775        H779   1.111       .  S
C775        H780   1.110   1_655  S
C775        H781   1.108   1_565  S
C778        H782   1.108   1_545  S
C778        H783   1.111   1_455  S
C778        H784   1.111       .  S
C785        C786   1.402       .  A
C785        C790   1.402       .  A
C785        H792   1.084       .  S
C786        C787   1.413   1_545  A
C787        C788   1.401       .  A
C787        C794   1.508       .  S
C788        C789   1.403   1_565  A
C788        H793   1.084       .  S
C789        C790   1.415       .  A
C790        C791   1.508       .  S
C791        H795   1.111       .  S
C791        H796   1.110       .  S
C791        H797   1.107       .  S
C794        H798   1.110       .  S
C794        H799   1.107       .  S
C794        H800   1.111       .  S
C801        C802   1.403       .  A
C801        C806   1.402       .  A
C801        H808   1.084       .  S
C802        C803   1.414       .  A
C803        C804   1.403       .  A
C803        C810   1.508       .  S
C804        C805   1.403       .  A
C804        H809   1.084       .  S
C805        C806   1.415       .  A
C806        C807   1.508       .  S
C807        H811   1.111   1_655  S
C807        H812   1.107       .  S
C807        H813   1.110   1_655  S
C810        H814   1.107       .  S
C810        H815   1.110       .  S
C810        H816   1.111       .  S
C817        C818   1.403       .  A
C817        C822   1.401       .  A
C817        H824   1.085       .  S
C818        C819   1.415       .  A
C819        C820   1.402       .  A
C819        C826   1.507       .  S
C820        C821   1.401       .  A
C820        H825   1.085       .  S
C821        C822   1.412       .  A
C822        C823   1.507       .  S
C823        H827   1.111       .  S
C823        H828   1.110       .  S
C823        H829   1.108       .  S
C826        H830   1.110       .  S
C826        H831   1.108       .  S
C826        H832   1.111       .  S
C833        C834   1.403       .  A
C833        C838   1.403       .  A
C833        H840   1.084       .  S
C834        C835   1.413       .  A
C835        C836   1.402       .  A
C835        C842   1.507       .  S
C836        C837   1.403       .  A
C836        H841   1.084       .  S
C837        C838   1.414       .  A
C838        C839   1.507       .  S
C839        H843   1.111       .  S
C839        H844   1.110       .  S
C839        H845   1.107       .  S
C842        H846   1.110       .  S
C842        H847   1.108       .  S
C842        H848   1.111       .  S
C849        C850   1.403       .  A
C849        C854   1.404       .  A
C849        H856   1.084       .  S
C850        C851   1.415       .  A
C851        C852   1.406       .  A
C851        C858   1.507       .  S
C852        C853   1.403       .  A
C852        H857   1.084       .  S
C853        C854   1.412       .  A
C854        C855   1.507       .  S
C855        H859   1.111       .  S
C855        H860   1.110       .  S
C855        H861   1.109       .  S
C858        H862   1.110       .  S
C858        H863   1.108       .  S
C858        H864   1.111       .  S
C865        C866   1.402       .  A
C865        C870   1.401       .  A
C865        H872   1.084       .  S
C866        C867   1.415       .  A
C867        C868   1.406       .  A
C867        C874   1.506       .  S
C868        C869   1.403       .  A
C868        H873   1.084       .  S
C869        C870   1.413       .  A
C870        C871   1.508       .  S
C871        H875   1.111       .  S
C871        H876   1.110       .  S
C871        H877   1.108       .  S
C874        H878   1.110       .  S
C874        H879   1.108       .  S
C874        H880   1.111       .  S
C881        C882   1.404       .  A
C881        C886   1.405       .  A
C881        H888   1.084       .  S
C882        C883   1.415       .  A
C883        C884   1.404       .  A
C883        C890   1.508       .  S
C884        C885   1.405       .  A
C884        H889   1.084       .  S
C885        C886   1.416       .  A
C886        C887   1.507       .  S
C887        H891   1.111       .  S
C887        H892   1.110       .  S
C887        H893   1.107       .  S
C890        H894   1.110       .  S
C890        H895   1.107       .  S
C890        H896   1.111       .  S
C897        C898   1.403       .  A
C897        C902   1.405       .  A
C897        H904   1.084       .  S
C898        C899   1.415       .  A
C899        C900   1.403       .  A
C899        C906   1.508       .  S
C900        C901   1.402       .  A
C900        H905   1.084       .  S
C901        C902   1.414       .  A
C902        C903   1.507       .  S
C903        H907   1.111       .  S
C903        H908   1.110       .  S
C903        H909   1.108       .  S
C906        H910   1.110       .  S
C906        H911   1.108       .  S
C906        H912   1.111       .  S
C913        C914   1.401   1_455  A
C913        C918   1.402       .  A
C913        H920   1.084       .  S
C914        C915   1.411       .  A
C915        C916   1.402       .  A
C915        C922   1.507       .  S
C916        C917   1.402       .  A
C916        H921   1.084       .  S
C917        C918   1.414   1_655  A
C918        C919   1.507       .  S
C919        H923   1.111       .  S
C919        H924   1.110       .  S
C919        H925   1.108       .  S
C922        H926   1.110       .  S
C922        H927   1.109       .  S
C922        H928   1.111       .  S
C929        C930   1.404       .  A
C929        C934   1.405       .  A
C929        H936   1.084   1_455  S
C930        C931   1.415       .  A
C931        C932   1.402       .  A
C931        C938   1.508       .  S
C932        C933   1.402       .  A
C932        H937   1.084       .  S
C933        C934   1.414       .  A
C934        C935   1.507       .  S
C935        H939   1.111       .  S
C935        H940   1.111       .  S
C935        H941   1.108   1_455  S
C938        H942   1.110       .  S
C938        H943   1.107       .  S
C938        H944   1.111       .  S
C945        C946   1.402       .  A
C945        C950   1.404       .  A
C945        H952   1.085       .  S
C946        C947   1.414       .  A
C947        C948   1.404       .  A
C947        C954   1.508       .  S
C948        C949   1.404       .  A
C948        H953   1.084       .  S
C949        C950   1.417       .  A
C950        C951   1.508       .  S
C951        H955   1.111       .  S
C951        H956   1.107       .  S
C951        H957   1.110       .  S
C954        H958   1.107       .  S
C954        H959   1.110       .  S
C954        H960   1.111       .  S
C961        C962   1.402       .  A
C961        C966   1.404       .  A
C961        H968   1.084       .  S
C962        C963   1.414       .  A
C963        C964   1.404       .  A
C963        C970   1.507       .  S
C964        C965   1.402       .  A
C964        H969   1.084       .  S
C965        C966   1.414       .  A
C966        C967   1.507       .  S
C967        H971   1.111       .  S
C967        H972   1.111       .  S
C967        H973   1.108       .  S
C970        H974   1.108       .  S
C970        H975   1.110       .  S
C970        H976   1.111       .  S
C977        C978   1.404       .  A
C977        C982   1.405       .  A
C977        H984   1.084       .  S
C978        C979   1.416       .  A
C979        C980   1.404       .  A
C979        C986   1.508       .  S
C980        C981   1.403       .  A
C980        H985   1.084       .  S
C981        C982   1.414       .  A
C982        C983   1.507       .  S
C983        H987   1.111       .  S
C983        H988   1.110       .  S
C983        H989   1.107   1_655  S
C986        H990   1.107       .  S
C986        H991   1.110       .  S
C986        H992   1.111       .  S
C993        C994   1.402       .  A
C993        C998   1.404       .  A
C993       H1000   1.084       .  S
C994        C995   1.414       .  A
C995        C996   1.405       .  A
C995       C1002   1.507       .  S
C996        C997   1.404       .  A
C996       H1001   1.084       .  S
C997        C998   1.414       .  A
C998        C999   1.507       .  S
C999       H1003   1.111       .  S
C999       H1004   1.108       .  S
C999       H1005   1.110       .  S
C1002      H1006   1.108       .  S
C1002      H1007   1.110       .  S
C1002      H1008   1.111       .  S
C1009      C1010   1.402   1_455  A
C1009      C1014   1.403       .  A
C1009      H1016   1.084       .  S
C1010      C1011   1.412       .  A
C1011      C1012   1.403       .  A
C1011      C1018   1.507       .  S
C1012      C1013   1.402       .  A
C1012      H1017   1.084       .  S
C1013      C1014   1.411   1_655  A
C1014      C1015   1.506       .  S
C1015      H1019   1.111       .  S
C1015      H1020   1.109       .  S
C1015      H1021   1.110       .  S
C1018      H1022   1.109       .  S
C1018      H1023   1.110       .  S
C1018      H1024   1.111       .  S
C1025      C1026   1.403       .  A
C1025      C1030   1.402       .  A
C1025      H1032   1.084       .  S
C1026      C1027   1.414       .  A
C1027      C1028   1.405       .  A
C1027      C1034   1.507   1_455  S
C1028      C1029   1.404       .  A
C1028      H1033   1.084       .  S
C1029      C1030   1.414       .  A
C1030      C1031   1.508       .  S
C1031      H1035   1.111       .  S
C1031      H1036   1.107       .  S
C1031      H1037   1.110       .  S
C1034      H1038   1.107       .  S
C1034      H1039   1.110       .  S
C1034      H1040   1.111       .  S
C1041      C1042   1.404       .  A
C1041      C1046   1.404   1_556  A
C1041      H1048   1.084       .  S
C1042      C1043   1.417       .  A
C1043      C1044   1.407   1_556  A
C1043      C1050   1.507       .  S
C1044      C1045   1.404       .  A
C1044      H1049   1.084       .  S
C1045      C1046   1.414       .  A
C1046      C1047   1.507       .  S
C1047      H1051   1.111   1_554  S
C1047      H1052   1.107       .  S
C1047      H1053   1.110       .  S
C1050      H1054   1.110       .  S
C1050      H1055   1.107       .  S
C1050      H1056   1.111   1_556  S
C1057      C1058   1.402       .  A
C1057      C1062   1.401       .  A
C1057      H1064   1.084       .  S
C1058      C1059   1.413       .  A
C1059      C1060   1.401   1_554  A
C1059      C1066   1.507       .  S
C1060      C1061   1.402       .  A
C1060      H1065   1.084       .  S
C1061      C1062   1.412   1_556  A
C1062      C1063   1.507       .  S
C1063      H1067   1.111       .  S
C1063      H1068   1.110       .  S
C1063      H1069   1.108   1_554  S
C1066      H1070   1.108       .  S
C1066      H1071   1.110       .  S
C1066      H1072   1.111   1_554  S
C1073      C1074   1.402       .  A
C1073      C1078   1.402       .  A
C1073      H1080   1.084       .  S
C1074      C1075   1.415       .  A
C1075      C1076   1.400       .  A
C1075      C1082   1.508       .  S
C1076      C1077   1.401       .  A
C1076      H1081   1.085       .  S
C1077      C1078   1.413       .  A
C1078      C1079   1.507       .  S
C1079      H1083   1.111       .  S
C1079      H1084   1.110       .  S
C1079      H1085   1.108       .  S
C1082      H1086   1.110       .  S
C1082      H1087   1.107       .  S
C1082      H1088   1.111       .  S
C1089      C1090   1.403       .  A
C1089      C1094   1.403       .  A
C1089      H1096   1.084       .  S
C1090      C1091   1.414       .  A
C1091      C1092   1.401       .  A
C1091      C1098   1.508       .  S
C1092      C1093   1.402       .  A
C1092      H1097   1.084       .  S
C1093      C1094   1.412       .  A
C1094      C1095   1.507       .  S
C1095      H1099   1.111       .  S
C1095      H1100   1.108       .  S
C1095      H1101   1.111       .  S
C1098      H1102   1.108       .  S
C1098      H1103   1.110       .  S
C1098      H1104   1.111       .  S
C1105      C1106   1.401       .  A
C1105      C1110   1.404       .  A
C1105      H1112   1.084       .  S
C1106      C1107   1.414       .  A
C1107      C1108   1.403       .  A
C1107      C1114   1.507       .  S
C1108      C1109   1.402       .  A
C1108      H1113   1.084       .  S
C1109      C1110   1.414       .  A
C1110      C1111   1.507       .  S
C1111      H1115   1.111       .  S
C1111      H1116   1.108       .  S
C1111      H1117   1.110       .  S
C1114      H1118   1.108       .  S
C1114      H1119   1.110       .  S
C1114      H1120   1.111       .  S
C1121      C1122   1.402       .  A
C1121      C1126   1.401       .  A
C1121      H1128   1.084       .  S
C1122      C1123   1.413       .  A
C1123      C1124   1.403       .  A
C1123      C1130   1.508       .  S
C1124      C1125   1.404       .  A
C1124      H1129   1.084       .  S
C1125      C1126   1.414       .  A
C1126      C1127   1.508       .  S
C1127      H1131   1.111       .  S
C1127      H1132   1.107       .  S
C1127      H1133   1.110       .  S
C1130      H1134   1.107       .  S
C1130      H1135   1.111       .  S
C1130      H1136   1.111       .  S
C1137      C1138   1.406       .  A
C1137      C1142   1.404       .  A
C1137      H1144   1.084       .  S
C1138      C1139   1.418       .  A
C1139      C1140   1.404       .  A
C1139      C1146   1.507       .  S
C1140      C1141   1.401       .  A
C1140      H1145   1.084       .  S
C1141      C1142   1.413       .  A
C1142      C1143   1.508       .  S
C1143      H1147   1.111       .  S
C1143      H1148   1.108       .  S
C1143      H1149   1.111       .  S
C1146      H1150   1.107       .  S
C1146      H1151   1.110       .  S
C1146      H1152   1.111       .  S
