geometry optimzed in LAMMPS
_audit_creation_date              2020-11-30 
_audit_creation_method            'lammps2cif' 
_symmetry_space_group_name_H-M    'P1' 
_symmetry_Int_Tables_number       1 
_symmetry_cell_setting            triclinic 
loop_ 
_symmetry_equiv_pos_as_xyz 
  x,y,z 
_cell_length_a                    41.1782199 
_cell_length_b                    41.18571748733529 
_cell_length_c                    41.21840147682581 
_cell_angle_alpha                 89.74825290699718 
_cell_angle_beta                  90.20238050692798 
_cell_angle_gamma                 89.78394198726022 
loop_ 
_atom_site_label 
_atom_site_type_symbol 
_atom_site_fract_x 
_atom_site_fract_y 
_atom_site_fract_z 
_atom_site_charge 
O1          O  0.02306518  0.45932226  0.29002946    -0.78900
O2          O  0.95464670  0.53260495  0.29140681    -0.78900
O3          O  0.06347874  0.52791161  0.26518548    -0.78900
O4          O  0.92414859  0.47319037  0.24152618    -0.78900
O5          O  0.02294193  0.52750801  0.29965765    -0.79000
O6          O  0.95582441  0.46450376  0.28354956    -0.78900
O7          O  0.92547765  0.53575398  0.24684807    -0.78900
O8          O  0.06257734  0.46511255  0.25520002    -0.78900
C9          C  0.05269313  0.45564840  0.28279263     1.10800
C10         C  0.92752612  0.53774094  0.27744779     1.10700
C11         C  0.05292597  0.53113883  0.29423638     1.10800
C12         C  0.92770506  0.46488029  0.27125505     1.10700
O13         O  0.96224186  0.43655347  0.21775730    -0.78900
O14         O  0.02988156  0.56953504  0.24245735    -0.79000
O15         O  0.03627815  0.47092637  0.19008718    -0.78900
O16         O  0.96549608  0.54595725  0.19020912    -0.78900
O17         O  0.96747202  0.57393394  0.23552205    -0.78900
O18         O  0.02523600  0.43192759  0.22473286    -0.78900
O19         O  0.96448558  0.47622317  0.18211475    -0.78900
O20         O  0.03700366  0.54027906  0.19866100    -0.78900
Co21       Co  0.99163788  0.45268654  0.25410678     1.51500
Co22       Co  0.99378634  0.54612860  0.26623802     1.51700
Co23       Co  0.04503917  0.50153434  0.22698269     1.51600
Co24       Co  0.94984728  0.50722527  0.21587098     1.51500
O25         O  0.99516373  0.50195592  0.24030742    -1.40800
C26         C  0.95929633  0.44655984  0.18852029     1.10700
C27         C  0.03818174  0.56753871  0.21279647     1.10800
C28         C  0.03638760  0.44076619  0.19732514     1.10800
C29         C  0.96346693  0.57309365  0.20496808     1.10700
O30         O  0.56864953  0.03722030  0.28062216    -0.78900
O31         O  0.46269431  0.95233773  0.29612751    -0.78900
O32         O  0.45863767  0.05844259  0.26153944    -0.78900
O33         O  0.53998423  0.93738464  0.27024708    -0.78900
O34         O  0.45477561  0.01804310  0.29641501    -0.79000
O35         O  0.53583587  0.98181316  0.30041824    -0.78900
O36         O  0.47790139  0.91723508  0.25980156    -0.78900
O37         O  0.51871443  0.05646055  0.27543913    -0.78900
C38         C  0.54803995  0.05954098  0.28599821     1.10800
C39         C  0.46480877  0.92328614  0.28712885     1.10700
C40         C  0.44940417  0.04733728  0.28901975     1.10800
C41         C  0.54355138  0.95199102  0.29729393     1.10700
O42         O  0.57277024  0.98252328  0.24287231    -0.78900
O43         O  0.42640093  0.01504122  0.23247050    -0.79000
O44         O  0.50848629  0.07803455  0.21554580    -0.78900
O45         O  0.47898703  0.94805290  0.19665698    -0.78900
O46         O  0.43625543  0.95095866  0.22926513    -0.78900
O47         O  0.54548746  0.03866119  0.21918159    -0.78900
O48         O  0.54387610  0.96268050  0.20350787    -0.78900
O49         O  0.46361743  0.03009848  0.19718739    -0.78900
Co50       Co  0.53675962  0.01012393  0.26123216     1.51500
Co51       Co  0.44835227  0.98444060  0.26334874     1.51700
Co52       Co  0.49450688  0.03800208  0.23450668     1.51600
Co53       Co  0.50943359  0.94478458  0.23276187     1.51500
O54         O  0.49451867  0.99023417  0.24710999    -1.40800
C55         C  0.57149159  0.96836287  0.21567804     1.10700
C56         C  0.43379897  0.02657556  0.20488672     1.10800
C57         C  0.53700431  0.06749888  0.20918961     1.10800
C58         C  0.44912429  0.94399727  0.20186379     1.10700
O59         O  0.19805749  0.03156440  0.47624918    -0.78900
O60         O  0.19733161  0.95269409  0.52798539    -0.78900
O61         O  0.24478457  0.96678376  0.42777285    -0.78900
O62         O  0.21485188  0.02571099  0.55901813    -0.78900
O63         O  0.20319149  0.95368019  0.45859468    -0.79000
O64         O  0.21089540  0.07075375  0.52992317    -0.78900
O65         O  0.23080791  0.96329737  0.56823621    -0.78900
O66         O  0.23523359  0.03073170  0.43731571    -0.78900
C67         C  0.20614793  0.03677045  0.44685606     1.10800
C68         C  0.20361432  0.95232474  0.55829515     1.10700
C69         C  0.21573529  0.95708086  0.43060391     1.10800
C70         C  0.20406103  0.05533573  0.55574373     1.10700
O71         O  0.27107702  0.04731098  0.54133383    -0.78900
O72         O  0.26880917  0.92565239  0.46648035    -0.79000
O73         O  0.29872317  0.03438623  0.47073983    -0.78900
O74         O  0.29515123  0.96829381  0.54050188    -0.78900
O75         O  0.26307385  0.92649708  0.53113887    -0.78900
O76         O  0.25761709  0.06636414  0.48127960    -0.78900
O77         O  0.27347487  0.01455994  0.58449221    -0.78900
O78         O  0.30445616  0.96567870  0.46328006    -0.78900
Co79       Co  0.23272783  0.03510620  0.50967601     1.51500
Co80       Co  0.23295160  0.94320794  0.49612255     1.51700
Co81       Co  0.27019320  0.99909429  0.45342174     1.51600
Co82       Co  0.25679258  0.99784243  0.54503095     1.51500
O83         O  0.24828027  0.99064196  0.49729831    -1.40800
C84         C  0.28012809  0.04158299  0.57095094     1.10700
C85         C  0.29779887  0.93552024  0.46097342     1.10800
C86         C  0.28675025  0.06277012  0.47169581     1.10800
C87         C  0.29048827  0.93772414  0.54005041     1.10700
O88         O  0.04308272  0.29309960  0.54811848    -0.78900
O89         O  0.97034805  0.26338374  0.43048945    -0.78900
O90         O  0.04703323  0.30298279  0.47689403    -0.78900
O91         O  0.96670547  0.29833821  0.53361133    -0.78900
O92         O  0.03831003  0.27198403  0.43430651    -0.79000
O93         O  0.98579245  0.26887586  0.57262853    -0.78900
O94         O  0.95309121  0.29454510  0.47024062    -0.78900
O95         O  0.08967844  0.28417888  0.52333078    -0.78900
C96         C  0.07343804  0.29994910  0.54416347     1.10800
C97         C  0.95224749  0.28626655  0.44086842     1.10700
C98         C  0.05068121  0.29752599  0.44689383     1.10800
C99         C  0.96758559  0.29193951  0.56327993     1.10700
O100        O  0.99760812  0.20587951  0.54573017    -0.78900
O101        O  0.04221489  0.20601643  0.46232510    -0.79000
O102        O  0.06446393  0.22405727  0.53454631    -0.78900
O103        O  0.93614905  0.22789500  0.47596914    -0.78900
O104        O  0.97854709  0.19999829  0.45967231    -0.78900
O105        O  0.04309849  0.23597240  0.58195669    -0.78900
O106        O  0.94965912  0.22918803  0.54216949    -0.78900
O107        O  0.07914599  0.24179550  0.47215343    -0.78900
Co108      Co  0.01991979  0.24825526  0.54366743     1.51500
Co109      Co  0.00735930  0.23645543  0.45003592     1.51700
Co110      Co  0.05160124  0.26459976  0.50594063     1.51600
Co111      Co  0.95507992  0.26214797  0.50521648     1.51500
O112        O  0.00387433  0.25301906  0.49687406    -1.40800
C113        C  0.96803866  0.20680064  0.55367665     1.10700
C114        C  0.07103197  0.21508121  0.45942435     1.10800
C115        C  0.06366973  0.22000816  0.56569603     1.10800
C116        C  0.94833726  0.20376256  0.46127875     1.10700
O117        O  0.47026631  0.30637986  0.04523094    -0.78900
O118        O  0.55214568  0.30235408  0.96946652    -0.78900
O119        O  0.53846734  0.27761687  0.07170266    -0.78900
O120        O  0.46791083  0.27272033  0.94039815    -0.78900
O121        O  0.54765997  0.30898160  0.02959175    -0.79000
O122        O  0.46485108  0.30909421  0.97934542    -0.78900
O123        O  0.53356136  0.26659197  0.93493274    -0.78900
O124        O  0.47505742  0.26838927  0.08107835    -0.78900
C125        C  0.46742522  0.29761094  0.07426242     1.10800
C126        C  0.55009566  0.29226633  0.94107190     1.10700
C127        C  0.54712776  0.30494767  0.05972679     1.10800
C128        C  0.46219758  0.30156066  0.94978495     1.10700
O129        O  0.42913099  0.24894743  0.97988694    -0.78900
O130        O  0.57866755  0.25074307  0.03162790    -0.79000
O131        O  0.47824409  0.20581702  0.04816582    -0.78900
O132        O  0.53061805  0.20286081  0.96635125    -0.78900
O133        O  0.57050284  0.23707595  0.97631283    -0.78900
O134        O  0.43740539  0.24078178  0.04399924    -0.78900
O135        O  0.46151077  0.20806627  0.96913826    -0.78900
O136        O  0.54606914  0.21106826  0.04449931    -0.78900
Co137      Co  0.45419564  0.27562097  0.01204735     1.51500
Co138      Co  0.54482966  0.27053600  0.00270219     1.51700
Co139      Co  0.50878857  0.24087595  0.05634817     1.51600
Co140      Co  0.49839287  0.23821176  0.95795066     1.51500
O141        O  0.49977717  0.25510480  0.00708011    -1.40800
C142        C  0.43307589  0.22017443  0.96982513     1.10700
C143        C  0.57474947  0.22240830  0.04312567     1.10800
C144        C  0.44854769  0.21254388  0.05176270     1.10800
C145        C  0.56075417  0.20951333  0.96579425     1.10700
O146        O  0.29840193  0.53108899  0.03802728    -0.78900
O147        O  0.29366553  0.46065329  0.96252625    -0.78900
O148        O  0.26898567  0.45160756  0.07022962    -0.78900
O149        O  0.27435845  0.53550328  0.95484848    -0.78900
O150        O  0.30162414  0.44700951  0.02777837    -0.79000
O151        O  0.27888210  0.57603918  0.99018255    -0.78900
O152        O  0.25300657  0.47728204  0.93283317    -0.78900
O153        O  0.26337629  0.51681273  0.07581608    -0.78900
C154        C  0.29052198  0.52895655  0.06800477     1.10800
C155        C  0.28136170  0.46585438  0.93493508     1.10700
C156        C  0.29635893  0.44321064  0.05781201     1.10800
C157        C  0.28512955  0.56432710  0.96224936     1.10700
O158        O  0.21923546  0.55275230  0.97979401    -0.78900
O159        O  0.23959891  0.41597021  0.02915457    -0.79000
O160        O  0.19980601  0.51700256  0.04679400    -0.78900
O161        O  0.19559069  0.47538368  0.96989395    -0.78900
O162        O  0.22756951  0.43210113  0.96651361    -0.78900
O163        O  0.23348084  0.55783811  0.03985097    -0.78900
O164        O  0.21229930  0.52878458  0.93233243    -0.78900
O165        O  0.20236356  0.45131205  0.04198789    -0.78900
Co166      Co  0.26107870  0.53624229  0.00585004     1.51500
Co167      Co  0.26540426  0.44246952  0.99688958     1.51700
Co168      Co  0.23387508  0.48435144  0.05553670     1.51600
Co169      Co  0.23350397  0.50553332  0.96647872     1.51500
O170        O  0.24980564  0.48837867  0.00927269    -1.40800
C171        C  0.20604072  0.55213568  0.95119391     1.10700
C172        C  0.21191593  0.42235068  0.04092886     1.10800
C173        C  0.20614476  0.54687535  0.04923877     1.10800
C174        C  0.19946050  0.44529166  0.96350189     1.10700
O175        O  0.53505011  0.06944980  0.72853518    -0.78900
O176        O  0.47274503  0.93685880  0.74950299    -0.78900
O177        O  0.57746877  0.97495219  0.72001595    -0.78900
O178        O  0.46111827  0.03336026  0.69255474    -0.78900
O179        O  0.53006575  0.95002022  0.72735813    -0.79000
O180        O  0.47023355  0.07437174  0.72615445    -0.78900
O181        O  0.46231679  0.96431226  0.70517805    -0.78900
O182        O  0.53875337  0.02532900  0.69850449    -0.78900
C183        C  0.54365164  0.05545512  0.70225302     1.10800
C184        C  0.46272164  0.93745490  0.72060154     1.10700
C185        C  0.55828733  0.95127927  0.71419094     1.10800
C186        C  0.46549747  0.06363372  0.69756737     1.10700
O187        O  0.46421520  0.05085802  0.79260208    -0.78900
O188        O  0.52271537  0.93190538  0.79044989    -0.79000
O189        O  0.56961623  0.03123093  0.76208649    -0.78900
O190        O  0.43411339  0.97792429  0.76914835    -0.78900
O191        O  0.47610213  0.97839731  0.80333859    -0.78900
O192        O  0.53112918  0.04604603  0.79573820    -0.78900
O193        O  0.42880402  0.04105030  0.75387780    -0.78900
O194        O  0.55443239  0.97400774  0.78119541    -0.78900
Co195      Co  0.49989421  0.05746146  0.76102109     1.51500
Co196      Co  0.50503308  0.96780320  0.76727204     1.51700
Co197      Co  0.54172448  0.99838875  0.73810490     1.51600
Co198      Co  0.44972298  0.00428857  0.73013920     1.51500
O199        O  0.49556083  0.01062225  0.74816872    -1.40800
C200        C  0.43505123  0.04908020  0.78287775     1.10700
C201        C  0.54939101  0.94627454  0.79486415     1.10800
C202        C  0.56096210  0.04380217  0.78906361     1.10800
C203        C  0.44627166  0.97304911  0.79757292     1.10700
O204        O  0.73063238  0.53532590  0.05492909    -0.78900
O205        O  0.74430918  0.47886078  0.90175557    -0.78900
O206        O  0.72024317  0.56639137  0.94787331    -0.78900
O207        O  0.69397358  0.46370396  0.00677386    -0.78900
O208        O  0.70593252  0.51725586  0.93800818    -0.79000
O209        O  0.72428451  0.46986525  0.05043912    -0.78900
O210        O  0.70777010  0.45910442  0.93625880    -0.78900
O211        O  0.70726747  0.55622682  0.01127063    -0.78900
C212        C  0.70775954  0.55177544  0.04144057     1.10800
C213        C  0.71841914  0.46303577  0.90679468     1.10700
C214        C  0.70132216  0.54705178  0.93438929     1.10800
C215        C  0.69797176  0.46021317  0.03718591     1.10700
O216        O  0.79294132  0.46543867  0.02746746    -0.78900
O217        O  0.77000842  0.53750156  0.91891616    -0.79000
O218        O  0.77321751  0.57163048  0.02572420    -0.78900
O219        O  0.77120546  0.43796388  0.95517878    -0.78900
O220        O  0.79634775  0.48233929  0.94391361    -0.78900
O221        O  0.80027127  0.52749989  0.03411024    -0.78900
O222        O  0.75558451  0.43044188  0.01697982    -0.78900
O223        O  0.78841149  0.56345544  0.96114167    -0.78900
Co224      Co  0.76144483  0.49996033  0.03788367     1.51500
Co225      Co  0.75141812  0.49901136  0.94251057     1.51700
Co226      Co  0.74750197  0.55803884  0.98665560     1.51600
Co227      Co  0.73321013  0.45542384  0.98009787     1.51500
O228        O  0.75031961  0.50610345  0.98917836    -1.40800
C229        C  0.78385577  0.43652751  0.02747397     1.10700
C230        C  0.78851507  0.55883472  0.93080683     1.10800
C231        C  0.79763852  0.55744715  0.03760075     1.10800
C232        C  0.79649525  0.45198264  0.94544834     1.10700
O233        O  0.03919784  0.69635242  0.51872085    -0.78900
O234        O  0.95570730  0.70243405  0.46676135    -0.78900
O235        O  0.96758731  0.73133165  0.57145471    -0.78900
O236        O  0.02773915  0.71408094  0.44662151    -0.78900
O237        O  0.95247687  0.70051406  0.53071899    -0.79000
O238        O  0.07625704  0.71846102  0.46919930    -0.78900
O239        O  0.96864622  0.73616457  0.42868872    -0.78900
O240        O  0.03436758  0.72576333  0.56294250    -0.78900
C241        C  0.04586929  0.70070944  0.54841079     1.10800
C242        C  0.95328935  0.71105782  0.43773110     1.10700
C243        C  0.95399825  0.70591754  0.56065509     1.10800
C244        C  0.05799000  0.70591801  0.44767341     1.10700
O245        O  0.04859573  0.77902054  0.46745235    -0.78900
O246        O  0.92733927  0.76637566  0.53255247    -0.79000
O247        O  0.03339640  0.79365852  0.53889080    -0.78900
O248        O  0.97737829  0.79822356  0.45751163    -0.78900
O249        O  0.93249156  0.77057004  0.46570776    -0.78900
O250        O  0.07008829  0.75868650  0.52493528    -0.78900
O251        O  0.02458791  0.77424120  0.41936621    -0.78900
O252        O  0.96898565  0.79690835  0.54597040    -0.78900
Co253      Co  0.03998738  0.73647568  0.49208659     1.51500
Co254      Co  0.94538277  0.73542790  0.49921934     1.51700
Co255      Co  0.00066177  0.76133156  0.55143557     1.51600
Co256      Co  0.00346126  0.75738683  0.45651525     1.51500
O257        O  0.99335096  0.74780075  0.50404661    -1.40800
C258        C  0.04602457  0.78719050  0.43749897     1.10700
C259        C  0.93878629  0.79217216  0.54485682     1.10800
C260        C  0.06254587  0.78478948  0.53962849     1.10800
C261        C  0.94705050  0.79495290  0.45297213     1.10700
O262        O  0.03123407  0.52282670  0.69256781    -0.78900
O263        O  0.95260515  0.46126590  0.70313735    -0.78900
O264        O  0.05752362  0.46027400  0.73896140    -0.78900
O265        O  0.92650126  0.53491639  0.72816476    -0.78900
O266        O  0.01941363  0.45619737  0.70192700    -0.79000
O267        O  0.96302024  0.52814211  0.68992483    -0.78900
O268        O  0.91938204  0.47375002  0.74240823    -0.78900
O269        O  0.06520014  0.52281641  0.73348150    -0.78900
C270        C  0.05988980  0.52590624  0.70335587     1.10800
C271        C  0.92396678  0.46306740  0.71405145     1.10700
C272        C  0.04819621  0.45119199  0.71078670     1.10800
C273        C  0.93430447  0.53540411  0.69809243     1.10700
O274        O  0.96712849  0.57235357  0.74486832    -0.78900
O275        O  0.01840491  0.42938644  0.76898151    -0.79000
O276        O  0.03154494  0.53712043  0.79346404    -0.78900
O277        O  0.95372670  0.47804029  0.80344131    -0.78900
O278        O  0.95529957  0.43684255  0.76963338    -0.78900
O279        O  0.02956934  0.56626481  0.74858749    -0.78900
O280        O  0.96092136  0.54580828  0.79061010    -0.78900
O281        O  0.02434595  0.46981845  0.80244256    -0.78900
Co282      Co  0.99726663  0.54280716  0.72007137     1.51500
Co283      Co  0.98698316  0.45036244  0.73561439     1.51700
Co284      Co  0.04002751  0.49770050  0.76680912     1.51600
Co285      Co  0.94487808  0.50782891  0.76596249     1.51500
O286        O  0.99223017  0.49977018  0.74749979    -1.40800
C287        C  0.96136917  0.57240150  0.77509482     1.10700
C288        C  0.02641538  0.43976646  0.79709173     1.10800
C289        C  0.03424048  0.56431231  0.77906807     1.10800
C290        C  0.95014013  0.44788640  0.79785840     1.10700
O291        O  0.56603889  0.73704189  0.03436594    -0.78900
O292        O  0.43363381  0.73702814  0.96629686    -0.78900
O293        O  0.47194936  0.73357842  0.07642045    -0.78900
O294        O  0.53673432  0.70649249  0.95677848    -0.78900
O295        O  0.45102299  0.72173566  0.02832361    -0.79000
O296        O  0.57688631  0.73925930  0.96651606    -0.78900
O297        O  0.47313841  0.70410745  0.95578853    -0.78900
O298        O  0.52134232  0.70875377  0.04158789    -0.78900
C299        C  0.55122854  0.71311125  0.04769492     1.10800
C300        C  0.44349896  0.71071344  0.95372542     1.10700
C301        C  0.45264931  0.71681167  0.05930297     1.10800
C302        C  0.56569616  0.71419997  0.95272715     1.10700
O303        O  0.55049447  0.80353780  0.96433036    -0.78900
O304        O  0.41922424  0.77866881  0.01634158    -0.79000
O305        O  0.52532678  0.77275295  0.06692508    -0.78900
O306        O  0.46969742  0.77038809  0.92807660    -0.78900
O307        O  0.45977579  0.80150354  0.97023188    -0.78900
O308        O  0.54121652  0.80417149  0.02809680    -0.78900
O309        O  0.53739653  0.77026387  0.92483979    -0.78900
O310        O  0.46421320  0.79055693  0.04322127    -0.78900
Co311      Co  0.55511736  0.77005632  0.99820823     1.51500
Co312      Co  0.45914367  0.76301502  0.99965868     1.51700
Co313      Co  0.49329592  0.74849699  0.03848550     1.51600
Co314      Co  0.50436645  0.73865737  0.94457362     1.51500
O315        O  0.50730636  0.75548925  0.99130490    -1.40800
C316        C  0.55129114  0.79611582  0.93474153     1.10700
C317        C  0.43345891  0.79539444  0.03782585     1.10800
C318        C  0.54129501  0.79729155  0.05764283     1.10800
C319        C  0.45603557  0.79545593  0.94032312     1.10700
O320        O  0.81848084  0.28912213  0.59060320    -0.78900
O321        O  0.75527657  0.37464103  0.66629621    -0.78900
O322        O  0.86143757  0.35245730  0.67747131    -0.78900
O323        O  0.74869044  0.36115098  0.58255305    -0.78900
O324        O  0.81025966  0.34780956  0.68743118    -0.79000
O325        O  0.76895550  0.32419228  0.61575849    -0.78900
O326        O  0.74106294  0.40837724  0.62725294    -0.78900
O327        O  0.83678924  0.30837007  0.63768546    -0.78900
C328        C  0.82693092  0.28478383  0.61985441     1.10800
C329        C  0.73397417  0.39132420  0.65202439     1.10700
C330        C  0.83907255  0.34367882  0.69606729     1.10800
C331        C  0.74549391  0.33531770  0.59936936     1.10700
O332        O  0.80020267  0.34190030  0.55608163    -0.78900
O333        O  0.84469948  0.41036577  0.67555355    -0.79000
O334        O  0.89453149  0.33722085  0.62483995    -0.78900
O335        O  0.79971857  0.43995537  0.60547278    -0.78900
O336        O  0.78727011  0.43630852  0.65756214    -0.78900
O337        O  0.86121338  0.33861421  0.58263859    -0.78900
O338        O  0.80720985  0.39437583  0.55776786    -0.78900
O339        O  0.87105519  0.39998329  0.62972003    -0.78900
Co340      Co  0.81364636  0.33325782  0.60172558     1.51500
Co341      Co  0.79968294  0.39079989  0.66951676     1.51700
Co342      Co  0.85274531  0.35588376  0.63012870     1.51600
Co343      Co  0.77680090  0.39984011  0.59438913     1.51500
O344        O  0.80861347  0.37568655  0.62426292    -1.40800
C345        C  0.80662064  0.36831107  0.54196513     1.10700
C346        C  0.86861243  0.41545943  0.65623524     1.10800
C347        C  0.88991870  0.33319613  0.59484664     1.10800
C348        C  0.79470226  0.45289829  0.63271532     1.10700
O349        O  0.58095775  0.34494137  0.83908587    -0.78900
O350        O  0.66622953  0.43692142  0.77078959    -0.78900
O351        O  0.63079841  0.40681098  0.85137917    -0.78900
O352        O  0.56698870  0.39562121  0.78385401    -0.78900
O353        O  0.67971397  0.41198663  0.82941685    -0.79000
O354        O  0.56205561  0.34357507  0.77662772    -0.78900
O355        O  0.61334605  0.44009568  0.77897249    -0.78900
O356        O  0.61683416  0.34594948  0.87890222    -0.78900
C357        C  0.58830317  0.33932791  0.86910968     1.10800
C358        C  0.64073222  0.45330483  0.77691234     1.10700
C359        C  0.65880790  0.41974876  0.85095688     1.10800
C360        C  0.54931316  0.37138609  0.78014153     1.10700
O361        O  0.62456368  0.32143236  0.75434595    -0.78900
O362        O  0.69446489  0.34898994  0.80090344    -0.79000
O363        O  0.63815144  0.31238767  0.82793856    -0.78900
O364        O  0.64024395  0.40754690  0.72329884    -0.78900
O365        O  0.67815853  0.37406448  0.74095575    -0.78900
O366        O  0.59418966  0.29061271  0.80577917    -0.78900
O367        O  0.59619083  0.35965096  0.72882088    -0.78900
O368        O  0.67688531  0.35547605  0.85046825    -0.78900
Co369      Co  0.60615361  0.33442467  0.79605608     1.51500
Co370      Co  0.67730707  0.39129095  0.78545437     1.51700
Co371      Co  0.63037617  0.36117385  0.83709829     1.51600
Co372      Co  0.60494149  0.39963431  0.75622928     1.51500
O373        O  0.63122396  0.37604271  0.79074173    -1.40800
C374        C  0.61215289  0.33298234  0.72865851     1.10700
C375        C  0.69834636  0.34532398  0.83107696     1.10800
C376        C  0.61983487  0.28785828  0.82285804     1.10800
C377        C  0.66540400  0.39045541  0.71830360     1.10700
O378        O  0.60238750  0.19685364  0.70508687    -0.78900
O379        O  0.68615288  0.24461540  0.62098952    -0.78900
O380        O  0.67484632  0.13585417  0.64022639    -0.78900
O381        O  0.60329915  0.26462554  0.63182776    -0.78900
O382        O  0.69650351  0.18362772  0.64728586    -0.79000
O383        O  0.63440222  0.24135901  0.66890521    -0.78900
O384        O  0.65000826  0.26422020  0.58631712    -0.78900
O385        O  0.63955021  0.16347329  0.68344316    -0.78900
C386        C  0.62643438  0.17770187  0.70793134     1.10800
C387        C  0.67554162  0.26762510  0.60347211     1.10700
C388        C  0.69791610  0.15320544  0.64984159     1.10800
C389        C  0.61937594  0.26602217  0.65823577     1.10700
O390        O  0.57073881  0.21905330  0.65172782    -0.78900
O391        O  0.68176084  0.15530512  0.58396561    -0.79000
O392        O  0.61456122  0.11263655  0.64961592    -0.78900
O393        O  0.62024301  0.20873210  0.55576432    -0.78900
O394        O  0.67349447  0.21492657  0.55983626    -0.78900
O395        O  0.58443004  0.15665853  0.65717513    -0.78900
O396        O  0.57115454  0.20976224  0.59956988    -0.78900
O397        O  0.63108925  0.13741711  0.58881359    -0.78900
Co398      Co  0.61355568  0.19920054  0.66118618     1.51500
Co399      Co  0.68234784  0.19989333  0.60468114     1.51700
Co400      Co  0.63055216  0.15317915  0.63426024     1.51600
Co401      Co  0.61174991  0.23431460  0.59421166     1.51500
O402        O  0.63576126  0.19866449  0.61875755    -1.40800
C403        C  0.55605664  0.21169266  0.62596155     1.10700
C404        C  0.65941150  0.13502459  0.57644646     1.10800
C405        C  0.58838156  0.12546532  0.65946612     1.10800
C406        C  0.64808173  0.20991508  0.54337277     1.10700
O407        O  0.87155730  0.20177144  0.67167803    -0.78900
O408        O  0.82681678  0.13943825  0.73181247    -0.78900
O409        O  0.80792404  0.13119456  0.65043943    -0.78900
O410        O  0.91131963  0.14977742  0.76217811    -0.78900
O411        O  0.79260247  0.10151723  0.69270118    -0.79000
O412        O  0.88833771  0.18732892  0.73226256    -0.78900
O413        O  0.85688839  0.10967874  0.76397574    -0.78900
O414        O  0.83138990  0.17334746  0.65194786    -0.78900
C415        C  0.84384290  0.19982440  0.65895264     1.10800
C416        C  0.83066546  0.12564466  0.75893222     1.10700
C417        C  0.78575848  0.11836125  0.66822891     1.10800
C418        C  0.89982924  0.17826525  0.75899179     1.10700
O419        O  0.94837214  0.15755492  0.70886670    -0.78900
O420        O  0.84136291  0.07479982  0.66023866    -0.79000
O421        O  0.88211346  0.15956307  0.61718428    -0.78900
O422        O  0.89193185  0.06510036  0.71980301    -0.78900
O423        O  0.83961842  0.07057741  0.72267895    -0.78900
O424        O  0.92664252  0.16655205  0.64576607    -0.78900
O425        O  0.94245979  0.10508264  0.71757926    -0.78900
O426        O  0.85787878  0.10076314  0.61811429    -0.78900
Co427      Co  0.90626523  0.17374914  0.69020933     1.51500
Co428      Co  0.83692810  0.11047551  0.69522838     1.51700
Co429      Co  0.85789746  0.13493232  0.65029033     1.51600
Co430      Co  0.89939833  0.10866565  0.73751113     1.51500
O431        O  0.88241813  0.12845108  0.69350926    -1.40800
C432        C  0.96010599  0.12926566  0.71193273     1.10700
C433        C  0.84496433  0.07603071  0.62963139     1.10800
C434        C  0.91128850  0.16850744  0.61887751     1.10800
C435        C  0.86429476  0.05264499  0.72118741     1.10700
O436        O  0.63085528  0.13952003  0.92139702    -0.78900
O437        O  0.69269332  0.07236244  0.87754555    -0.78900
O438        O  0.63354540  0.09584237  0.84867682    -0.78900
O439        O  0.74047231  0.13286499  0.93477802    -0.78900
O440        O  0.66955040  0.07410043  0.81586561    -0.79000
O441        O  0.68872234  0.12632412  0.94641734    -0.78900
O442        O  0.74367649  0.08713532  0.88511366    -0.78900
O443        O  0.61305572  0.15805559  0.87599840    -0.78900
C444        C  0.60851540  0.15347020  0.90602380     1.10800
C445        C  0.72147702  0.06536865  0.88512240     1.10700
C446        C  0.64076839  0.07484804  0.82626411     1.10800
C447        C  0.71796685  0.12600964  0.95454900     1.10700
O448        O  0.71161777  0.19095134  0.93075154    -0.78900
O449        O  0.67906140  0.13847344  0.80679772    -0.79000
O450        O  0.66793172  0.18785848  0.84706260    -0.78900
O451        O  0.74849679  0.14418469  0.83946027    -0.78900
O452        O  0.73068088  0.09774428  0.82420313    -0.78900
O453        O  0.65423893  0.20151764  0.89671796    -0.78900
O454        O  0.74197814  0.18459886  0.88760137    -0.78900
O455        O  0.62672262  0.14920383  0.81340229    -0.78900
Co456      Co  0.67248984  0.16260541  0.92121382     1.51500
Co457      Co  0.68585769  0.10591644  0.84475941     1.51700
Co458      Co  0.65274434  0.14294809  0.85027642     1.51600
Co459      Co  0.74036973  0.13705424  0.88608556     1.51500
O460        O  0.69071766  0.13832812  0.88123358    -1.40800
C461        C  0.73426270  0.20050907  0.91229732     1.10700
C462        C  0.65157908  0.14885486  0.79568780     1.10800
C463        C  0.65681976  0.20817894  0.86664550     1.10800
C464        C  0.75126707  0.12039722  0.82108539     1.10700
O465        O  0.79626507  0.33778795  0.89118260    -0.78900
O466        O  0.91270030  0.27301193  0.83186604    -0.78900
O467        O  0.84522646  0.36192385  0.80402838    -0.78900
O468        O  0.82311581  0.25588808  0.89227282    -0.78900
O469        O  0.87062115  0.31456256  0.80649331    -0.79000
O470        O  0.81396115  0.28955942  0.93246515    -0.78900
O471        O  0.86781052  0.24883574  0.84534248    -0.78900
O472        O  0.81026523  0.32026138  0.84226132    -0.78900
C473        C  0.78880262  0.32733647  0.86301544     1.10800
C474        C  0.89295295  0.24968147  0.82815010     1.10700
C475        C  0.85569349  0.33668918  0.79022626     1.10800
C476        C  0.80536250  0.26571799  0.91500162     1.10700
O477        O  0.87476587  0.32294896  0.94506762    -0.78900
O478        O  0.93048192  0.33698145  0.82225418    -0.79000
O479        O  0.83112757  0.38127077  0.86399661    -0.78900
O480        O  0.91985507  0.26428955  0.89178340    -0.78900
O481        O  0.92865018  0.31660275  0.88495355    -0.78900
O482        O  0.85509469  0.37437505  0.91000945    -0.78900
O483        O  0.87402988  0.26950640  0.93938252    -0.78900
O484        O  0.89553967  0.36997854  0.84585377    -0.78900
Co485      Co  0.83714023  0.33039148  0.91758465     1.51500
Co486      Co  0.89828562  0.31737925  0.84840845     1.51700
Co487      Co  0.85265467  0.34209986  0.84479013     1.51600
Co488      Co  0.87035355  0.26238269  0.89127486     1.51500
O489        O  0.86272046  0.31016168  0.88041115    -1.40800
C490        C  0.88184338  0.29492889  0.95492908     1.10700
C491        C  0.92221190  0.36561870  0.82978207     1.10800
C492        C  0.83905935  0.39247349  0.89124338     1.10800
C493        C  0.93903588  0.28859059  0.89181532     1.10700
O494        O  0.31255335  0.20502022  0.64597430    -0.78900
O495        O  0.39620264  0.22914586  0.69877994    -0.78900
O496        O  0.36486923  0.12561924  0.67963876    -0.78900
O497        O  0.36341498  0.25905485  0.62107361    -0.78900
O498        O  0.36932171  0.17072493  0.70710519    -0.79000
O499        O  0.33117606  0.22661622  0.59298969    -0.78900
O500        O  0.41933655  0.25481887  0.65780974    -0.78900
O501        O  0.31746920  0.15592619  0.65797209    -0.78900
C502        C  0.30116987  0.18142213  0.65972916     1.10800
C503        C  0.41119191  0.25310178  0.68754642     1.10700
C504        C  0.36165971  0.14130927  0.70578095     1.10800
C505        C  0.33732062  0.25435873  0.60559562     1.10700
O506        O  0.37184504  0.16794759  0.58216186    -0.78900
O507        O  0.42340537  0.14141126  0.67304238    -0.79000
O508        O  0.33893469  0.11363949  0.61623433    -0.78900
O509        O  0.44148883  0.20507349  0.61362350    -0.78900
O510        O  0.45042396  0.20070163  0.66632532    -0.78900
O511        O  0.30991139  0.15463733  0.59448919    -0.78900
O512        O  0.38988597  0.21674784  0.57314310    -0.78900
O513        O  0.40489623  0.13143656  0.62382322    -0.78900
Co514      Co  0.34296374  0.18435591  0.61611089     1.51500
Co515      Co  0.40780476  0.18605118  0.68424225     1.51700
Co516      Co  0.36185186  0.14909279  0.63691830     1.51600
Co517      Co  0.40230926  0.23130427  0.61797137     1.51500
O518        O  0.38052719  0.19518826  0.64443334    -1.40800
C519        C  0.38111920  0.18934502  0.56270362     1.10700
C520        C  0.42333669  0.12406668  0.64755586     1.10800
C521        C  0.31547043  0.12352203  0.59795799     1.10800
C522        C  0.46037016  0.20119612  0.63728622     1.10700
O523        O  0.15882445  0.31803639  0.59872252    -0.78900
O524        O  0.21417653  0.43209959  0.66967836    -0.78900
O525        O  0.11115365  0.38170638  0.66370696    -0.78900
O526        O  0.21242477  0.38321866  0.57189127    -0.78900
O527        O  0.15275976  0.41493419  0.67023123    -0.79000
O528        O  0.21707713  0.32973211  0.57448655    -0.78900
O529        O  0.20963519  0.43037995  0.61689425    -0.78900
O530        O  0.13920259  0.36817480  0.60342267    -0.78900
C531        C  0.14059457  0.34106901  0.58865020     1.10800
C532        C  0.20973352  0.44629615  0.64279423     1.10700
C533        C  0.12213214  0.40890189  0.67302171     1.10800
C534        C  0.21152743  0.35574413  0.55861713     1.10700
O535        O  0.24703969  0.31576287  0.63717956    -0.78900
O536        O  0.18987928  0.39911378  0.72186701    -0.79000
O537        O  0.13836448  0.32175420  0.65464578    -0.78900
O538        O  0.26268930  0.39935823  0.65340400    -0.78900
O539        O  0.23739574  0.36829362  0.68866358    -0.78900
O540        O  0.18753811  0.30314754  0.66236170    -0.78900
O541        O  0.26655678  0.35262210  0.60420711    -0.78900
O542        O  0.16162461  0.35898088  0.69938119    -0.78900
Co543      Co  0.20273147  0.31891566  0.62000844     1.51500
Co544      Co  0.19566738  0.38795638  0.67779348     1.51700
Co545      Co  0.15287772  0.36760680  0.64962626     1.51600
Co546      Co  0.23550762  0.39039413  0.61276281     1.51500
O547        O  0.19918009  0.36521061  0.63526200    -1.40800
C548        C  0.26917651  0.32530257  0.61858044     1.10700
C549        C  0.17275300  0.37376766  0.72455419     1.10800
C550        C  0.15740244  0.30055305  0.66623729     1.10800
C551        C  0.26118903  0.38586047  0.68134138     1.10700
O552        O  0.40025466  0.29954072  0.83357478    -0.78900
O553        O  0.32372152  0.41427018  0.78177989    -0.78900
O554        O  0.31205662  0.33843749  0.86884227    -0.78900
O555        O  0.38749178  0.33104005  0.75531888    -0.78900
O556        O  0.30517182  0.36875940  0.82504399    -0.79000
O557        O  0.43305938  0.32321932  0.78184806    -0.78900
O558        O  0.33844649  0.37032920  0.75752321    -0.78900
O559        O  0.34854820  0.30940231  0.82117875    -0.78900
C560        C  0.37198908  0.28977626  0.82549090     1.10800
C561        C  0.32047583  0.39459705  0.75845703     1.10700
C562        C  0.29336252  0.35197706  0.84862331     1.10800
C563        C  0.41412272  0.31682451  0.75841554     1.10700
O564        O  0.44450583  0.38310681  0.81639711    -0.78900
O565        O  0.31924343  0.42806419  0.84720903    -0.79000
O566        O  0.37471384  0.32990749  0.88073895    -0.78900
O567        O  0.38200416  0.42621580  0.76797368    -0.78900
O568        O  0.37932974  0.43237866  0.82093247    -0.78900
O569        O  0.41830745  0.35737219  0.87125784    -0.78900
O570        O  0.43332791  0.38278989  0.76413193    -0.78900
O571        O  0.34890813  0.39212823  0.87470187    -0.78900
Co572      Co  0.42170885  0.34285362  0.82558192     1.51500
Co573      Co  0.34562911  0.39911938  0.82375803     1.51700
Co574      Co  0.34901154  0.35079692  0.84493164     1.51600
Co575      Co  0.38471016  0.37704847  0.76381650     1.51500
O576        O  0.38017068  0.36651907  0.81159102    -1.40800
C577        C  0.45328207  0.38623646  0.78742655     1.10700
C578        C  0.33050804  0.41775647  0.87406368     1.10800
C579        C  0.40231773  0.33929926  0.88993313     1.10800
C580        C  0.38286177  0.44431170  0.79298376     1.10700
O581        O  0.15854373  0.34152425  0.92798076    -0.78900
O582        O  0.04994516  0.27671287  0.85586312    -0.78900
O583        O  0.08435966  0.37409052  0.86170215    -0.78900
O584        O  0.10721942  0.28491467  0.94975010    -0.78900
O585        O  0.06809556  0.33458972  0.82980033    -0.79000
O586        O  0.16001164  0.28309947  0.94179023    -0.78900
O587        O  0.05445111  0.28064436  0.90936249    -0.78900
O588        O  0.13144203  0.38197739  0.90839371    -0.78900
C589        C  0.15123266  0.37149481  0.92895159     1.10800
C590        C  0.03728586  0.27997547  0.88406343     1.10700
C591        C  0.06575427  0.36376606  0.83938672     1.10800
C592        C  0.13583818  0.28501674  0.96089944     1.10700
O593        O  0.16743814  0.26030604  0.87496718    -0.78900
O594        O  0.13226478  0.30940630  0.81382385    -0.79000
O595        O  0.17490513  0.34935926  0.86639500    -0.78900
O596        O  0.08582289  0.22848150  0.87293297    -0.78900
O597        O  0.11520908  0.25083302  0.83563310    -0.78900
O598        O  0.20281275  0.31167839  0.89545437    -0.78900
O599        O  0.13921820  0.23485314  0.91218497    -0.78900
O600        O  0.13256326  0.36038124  0.82952596    -0.78900
Co601      Co  0.15877021  0.30250316  0.89666214     1.51500
Co602      Co  0.09323305  0.29308464  0.83759891     1.51700
Co603      Co  0.12422836  0.34916318  0.87476260     1.51600
Co604      Co  0.09724244  0.26054251  0.90981817     1.51500
O605        O  0.11239541  0.30121474  0.88355037    -1.40800
C606        C  0.16281606  0.23529547  0.89244929     1.10700
C607        C  0.13928692  0.33896860  0.80900665     1.10800
C608        C  0.20193542  0.33516975  0.87526902     1.10800
C609        C  0.10158150  0.22607273  0.84645629     1.10700
O610        O  0.20251766  0.15072487  0.70540333    -0.78900
O611        O  0.13133979  0.16995297  0.75288716    -0.78900
O612        O  0.14738985  0.19079616  0.68103345    -0.78900
O613        O  0.14994582  0.08409436  0.77252499    -0.78900
O614        O  0.10148865  0.20519792  0.70572624    -0.79000
O615        O  0.18580668  0.12010636  0.75729250    -0.78900
O616        O  0.10157694  0.12981479  0.77135421    -0.78900
O617        O  0.19113787  0.15140475  0.65420946    -0.78900
C618        C  0.20963494  0.15917865  0.67733680     1.10800
C619        C  0.11487337  0.15749187  0.77564861     1.10700
C620        C  0.12792112  0.21269227  0.69233101     1.10800
C621        C  0.17399885  0.10225269  0.77868247     1.10700
O622        O  0.17833244  0.05914823  0.72210416    -0.78900
O623        O  0.09484855  0.15809349  0.66113698    -0.79000
O624        O  0.14786564  0.10025815  0.64033135    -0.78900
O625        O  0.07509277  0.09871349  0.71208461    -0.78900
O626        O  0.07187843  0.15052254  0.72216199    -0.78900
O627        O  0.19428738  0.09020235  0.66591807    -0.78900
O628        O  0.12537182  0.05512807  0.71372263    -0.78900
O629        O  0.13289248  0.16392538  0.62343362    -0.78900
Co630      Co  0.18778583  0.10629279  0.71250599     1.51500
Co631      Co  0.11639451  0.16209164  0.70759466     1.51700
Co632      Co  0.14396599  0.14293489  0.66314457     1.51600
Co633      Co  0.11427598  0.09342279  0.73964283     1.51500
O634        O  0.14128933  0.12041647  0.70708438    -1.40800
C635        C  0.15320500  0.04236264  0.71592573     1.10700
C636        C  0.10357977  0.16754142  0.63234437     1.10800
C637        C  0.17536029  0.08582900  0.64153061     1.10800
C638        C  0.05834653  0.12414259  0.71496773     1.10700
O639        O  0.31764534  0.19493170  0.85261200    -0.78900
O640        O  0.26675400  0.12233347  0.83261307    -0.78900
O641        O  0.34284547  0.13418240  0.81626938    -0.78900
O642        O  0.24250495  0.14547468  0.91525424    -0.78900
O643        O  0.31526365  0.09018512  0.80102502    -0.79000
O644        O  0.26062956  0.18054296  0.87937824    -0.78900
O645        O  0.24496553  0.09515557  0.87336669    -0.78900
O646        O  0.36721727  0.17796578  0.85800778    -0.78900
C647        C  0.34731721  0.19864083  0.84717769     1.10800
C648        C  0.24262242  0.10839505  0.84568153     1.10700
C649        C  0.33235332  0.11452137  0.79401997     1.10800
C650        C  0.23781688  0.16983234  0.89633449     1.10700
O651        O  0.29151886  0.17115697  0.94262181    -0.78900
O652        O  0.35711027  0.08302617  0.85054014    -0.79000
O653        O  0.37084010  0.13505038  0.91202607    -0.78900
O654        O  0.29959448  0.06524260  0.90652479    -0.78900
O655        O  0.29334819  0.06268060  0.85398956    -0.78900
O656        O  0.35038273  0.18444365  0.91612485    -0.78900
O657        O  0.30011674  0.11833624  0.94798525    -0.78900
O658        O  0.39577906  0.12068855  0.85297888    -0.78900
Co659      Co  0.30498902  0.18004282  0.89633311     1.51500
Co660      Co  0.31099712  0.10620918  0.84314855     1.51700
Co661      Co  0.35422734  0.13192065  0.86676888     1.51600
Co662      Co  0.27470532  0.10729117  0.90971164     1.51500
O663        O  0.30872612  0.13256705  0.88340364    -1.40800
C664        C  0.29696015  0.14614783  0.96009601     1.10700
C665        C  0.38733378  0.09187930  0.84724816     1.10800
C666        C  0.37213156  0.16345964  0.92392858     1.10800
C667        C  0.29679134  0.04851050  0.88086975     1.10700
O668        O  0.58609507  0.86337243  0.66350869    -0.78900
O669        O  0.66146286  0.77303959  0.56377509    -0.78900
O670        O  0.65235125  0.87497027  0.60121206    -0.78900
O671        O  0.56167177  0.79709639  0.60116175    -0.78900
O672        O  0.67560735  0.83563075  0.57460469    -0.79000
O673        O  0.55310894  0.80551767  0.65305045    -0.78900
O674        O  0.61126064  0.78784156  0.56261200    -0.78900
O675        O  0.63571543  0.88228108  0.66449211    -0.78900
C676        C  0.60594761  0.88656464  0.66859649     1.10800
C677        C  0.63670124  0.78006439  0.54784024     1.10700
C678        C  0.66845577  0.86569531  0.57707839     1.10800
C679        C  0.54315439  0.80404694  0.62412470     1.10700
O680        O  0.60371469  0.77124556  0.68714229    -0.78900
O681        O  0.70826188  0.79959956  0.61788607    -0.79000
O682        O  0.67570763  0.82909689  0.67725076    -0.78900
O683        O  0.63745901  0.73493204  0.60640173    -0.78900
O684        O  0.67709796  0.76033951  0.63027420    -0.78900
O685        O  0.63056822  0.82778997  0.70442786    -0.78900
O686        O  0.58267716  0.74570768  0.64524232    -0.78900
O687        O  0.70043934  0.84914118  0.63473068    -0.78900
Co688      Co  0.59609715  0.81594764  0.67278354     1.51500
Co689      Co  0.66398860  0.79736543  0.60437031     1.51700
Co690      Co  0.65251248  0.84629031  0.63929450     1.51600
Co691      Co  0.60021742  0.76956485  0.60592333     1.51500
O692        O  0.62370802  0.80776214  0.63039427    -1.40800
C693        C  0.59038314  0.74675729  0.67507092     1.10700
C694        C  0.71898956  0.82553100  0.62849424     1.10800
C695        C  0.66103542  0.82896477  0.70364753     1.10800
C696        C  0.66586555  0.73454188  0.61930908     1.10700
O697        O  0.85748061  0.65334888  0.58406888    -0.78900
O698        O  0.77691749  0.56606971  0.65839550    -0.78900
O699        O  0.86143963  0.58723794  0.63556080    -0.78900
O700        O  0.79855735  0.60969202  0.56003598    -0.78900
O701        O  0.83383206  0.58568042  0.68149898    -0.79000
O702        O  0.79590365  0.66241032  0.55961115    -0.78900
O703        O  0.78915146  0.56362263  0.60607367    -0.78900
O704        O  0.89455670  0.64426884  0.62298431    -0.78900
C705        C  0.88753367  0.65276842  0.59409450     1.10800
C706        C  0.78582035  0.55023748  0.63344223     1.10700
C707        C  0.85671844  0.57506089  0.66369101     1.10800
C708        C  0.79841363  0.63592691  0.54451679     1.10700
O709        O  0.76911857  0.68262215  0.62040255    -0.78900
O710        O  0.80820033  0.65145559  0.68982203    -0.79000
O711        O  0.84693392  0.68520767  0.63709606    -0.78900
O712        O  0.73358079  0.59820475  0.63002873    -0.78900
O713        O  0.75072433  0.63184772  0.66717303    -0.78900
O714        O  0.82472980  0.70995683  0.59438162    -0.78900
O715        O  0.74384392  0.64764760  0.58856692    -0.78900
O716        O  0.85889049  0.64046019  0.67877768    -0.78900
Co717      Co  0.81233684  0.66701580  0.60515982     1.51500
Co718      Co  0.79250423  0.61030635  0.67209164     1.51700
Co719      Co  0.85084010  0.63450552  0.63148830     1.51600
Co720      Co  0.76892234  0.60553898  0.59715085     1.51500
O721        O  0.80330952  0.62497821  0.62711335    -1.40800
C722        C  0.74324642  0.67288032  0.60658938     1.10700
C723        C  0.83778017  0.65305104  0.69700171     1.10800
C724        C  0.84166572  0.71098064  0.62002486     1.10800
C725        C  0.72813238  0.61647799  0.65402127     1.10700
O726        O  0.68142287  0.58520104  0.83235604    -0.78900
O727        O  0.56827128  0.63523403  0.82299162    -0.78900
O728        O  0.60146557  0.65497622  0.87283855    -0.78900
O729        O  0.61078317  0.56514470  0.78047796    -0.78900
O730        O  0.58278398  0.69456441  0.84079068    -0.79000
O731        O  0.66389408  0.56728865  0.77269793    -0.78900
O732        O  0.56043476  0.61096357  0.77682349    -0.78900
O733        O  0.63934710  0.59465427  0.86436698    -0.78900
C734        C  0.66437888  0.57835231  0.85741157     1.10800
C735        C  0.54979762  0.62196217  0.80288890     1.10700
C736        C  0.58507368  0.68151953  0.86891957     1.10800
C737        C  0.63822727  0.55139472  0.77854053     1.10700
O738        O  0.67837696  0.63141680  0.74652420    -0.78900
O739        O  0.63892336  0.69723009  0.80407469    -0.79000
O740        O  0.68460840  0.64262337  0.85686095    -0.78900
O741        O  0.59757380  0.64788680  0.73392214    -0.78900
O742        O  0.58262262  0.68264367  0.77227230    -0.78900
O743        O  0.69931795  0.65014633  0.80656050    -0.78900
O744        O  0.64039419  0.59934260  0.72768674    -0.78900
O745        O  0.65046290  0.68242030  0.85311192    -0.78900
Co746      Co  0.67763377  0.61066153  0.78969680     1.51500
Co747      Co  0.60484625  0.66475458  0.81199431     1.51700
Co748      Co  0.63743868  0.63692045  0.84387622     1.51600
Co749      Co  0.60411441  0.60711139  0.75840835     1.51500
O750        O  0.63142903  0.62927770  0.79455434    -1.40800
C751        C  0.66452800  0.61745491  0.72313462     1.10700
C752        C  0.65163102  0.70359561  0.83109196     1.10800
C753        C  0.70536653  0.65274183  0.83647316     1.10800
C754        C  0.58700450  0.67530823  0.74263900     1.10700
O755        O  0.91571175  0.85481077  0.63571237    -0.78900
O756        O  0.83707885  0.93835095  0.71925970    -0.78900
O757        O  0.86239710  0.91802069  0.63174839    -0.78900
O758        O  0.93754258  0.89853075  0.69685912    -0.78900
O759        O  0.81668472  0.91917396  0.66003110    -0.79000
O760        O  0.94031705  0.84571002  0.69575992    -0.78900
O761        O  0.88994550  0.94243741  0.70970583    -0.78900
O762        O  0.87648331  0.86071650  0.59907875    -0.78900
C763        C  0.90548499  0.85258796  0.60600443     1.10800
C764        C  0.86243043  0.95516197  0.71446602     1.10700
C765        C  0.83374137  0.92921335  0.63610039     1.10800
C766        C  0.95397651  0.87295657  0.69434444     1.10700
O767        O  0.88167049  0.82118237  0.72231136    -0.78900
O768        O  0.80974606  0.85287033  0.68575180    -0.79000
O769        O  0.86291459  0.82047129  0.64752494    -0.78900
O770        O  0.86722167  0.90451532  0.76323953    -0.78900
O771        O  0.82838570  0.87334305  0.74521688    -0.78900
O772        O  0.90763429  0.79705071  0.66660636    -0.78900
O773        O  0.91231754  0.85594003  0.74913621    -0.78900
O774        O  0.82189125  0.86461092  0.63536379    -0.78900
Co775      Co  0.89512052  0.83941519  0.68013645     1.51500
Co776      Co  0.82548691  0.89436573  0.70211899     1.51700
Co777      Co  0.86818495  0.87116297  0.64323270     1.51600
Co778      Co  0.90050368  0.89935141  0.72705416     1.51500
O779        O  0.87140622  0.88070731  0.69131599    -1.40800
C780        C  0.89930619  0.82782035  0.74659237     1.10700
C781        C  0.80467441  0.85026400  0.65587264     1.10800
C782        C  0.88057819  0.79508117  0.65216159     1.10800
C783        C  0.84097296  0.88914532  0.76807611     1.10700
O784        O  0.86243549  0.64763488  0.91430430    -0.78900
O785        O  0.93860331  0.69130724  0.87660082    -0.78900
O786        O  0.89791705  0.63994713  0.84676344    -0.78900
O787        O  0.88460434  0.75393354  0.93060373    -0.78900
O788        O  0.93327131  0.66529887  0.81574772    -0.79000
O789        O  0.88424554  0.70204630  0.94001168    -0.78900
O790        O  0.93441987  0.74437519  0.88395081    -0.78900
O791        O  0.83594671  0.63392137  0.87129406    -0.78900
C792        C  0.84484190  0.62735673  0.90005230     1.10800
C793        C  0.95101667  0.71800039  0.88506041     1.10700
C794        C  0.92238913  0.63888332  0.82722419     1.10800
C795        C  0.88573855  0.73029083  0.95038219     1.10700
O796        O  0.82367914  0.73697098  0.92068569    -0.78900
O797        O  0.87469287  0.69247211  0.80226993    -0.79000
O798        O  0.81466071  0.69309459  0.84149386    -0.78900
O799        O  0.88365234  0.76158460  0.83447851    -0.78900
O800        O  0.92442837  0.73177108  0.82054930    -0.78900
O801        O  0.80334345  0.68150547  0.89242579    -0.78900
O802        O  0.84015792  0.76494174  0.87812728    -0.78900
O803        O  0.84636703  0.64687365  0.80673764    -0.78900
Co804      Co  0.84556667  0.69252454  0.91497069     1.51500
Co805      Co  0.90540558  0.69124920  0.84211089     1.51700
Co806      Co  0.85686151  0.66998516  0.84470927     1.51600
Co807      Co  0.88534673  0.75297095  0.88118085     1.51500
O808        O  0.87202647  0.70524801  0.87519234    -1.40800
C809        C  0.81972991  0.75968695  0.89979823     1.10700
C810        C  0.85785481  0.66956749  0.78945230     1.10800
C811        C  0.79413950  0.68672733  0.86338310     1.10800
C812        C  0.90668932  0.75658516  0.81572451     1.10700
O813        O  0.65985161  0.93909718  0.83544215    -0.78900
O814        O  0.70728882  0.84383584  0.93487200    -0.78900
O815        O  0.61971690  0.85167565  0.87196966    -0.78900
O816        O  0.72357200  0.94800478  0.90353537    -0.78900
O817        O  0.64942497  0.85435031  0.91410903    -0.79000
O818        O  0.72337134  0.95768195  0.85120689    -0.78900
O819        O  0.71026457  0.89654808  0.93976204    -0.78900
O820        O  0.63229720  0.89432214  0.82516008    -0.78900
C821        C  0.63362611  0.92503934  0.82713478     1.10800
C822        C  0.70705732  0.86905962  0.95243798     1.10700
C823        C  0.62182743  0.84897743  0.90206339     1.10800
C824        C  0.72496763  0.96753370  0.88017155     1.10700
O825        O  0.74587036  0.89835535  0.82088436    -0.78900
O826        O  0.68068102  0.79883254  0.89218298    -0.79000
O827        O  0.68373230  0.84386557  0.81445123    -0.78900
O828        O  0.75836554  0.85793834  0.90566716    -0.78900
O829        O  0.73151692  0.83117334  0.86886874    -0.78900
O830        O  0.68719961  0.89141428  0.79300948    -0.78900
O831        O  0.77134045  0.91039655  0.86620805    -0.78900
O832        O  0.66089543  0.81579901  0.84528254    -0.78900
Co833      Co  0.70353636  0.91837261  0.83020844     1.51500
Co834      Co  0.69029865  0.84449532  0.88878857     1.51700
Co835      Co  0.66083697  0.86446948  0.85003475     1.51600
Co836      Co  0.73765795  0.90231223  0.90147371     1.51500
O837        O  0.69720725  0.89028885  0.87302797    -1.40800
C838        C  0.77178123  0.90203447  0.83653004     1.10700
C839        C  0.66923075  0.79276689  0.86430160     1.10800
C840        C  0.68720987  0.86104913  0.79001455     1.10800
C841        C  0.75506616  0.83293987  0.88823914     1.10700
O842        O  0.31567805  0.83277837  0.58047913    -0.78900
O843        O  0.42896338  0.82140457  0.63166707    -0.78900
O844        O  0.40168386  0.87547393  0.64164873    -0.78900
O845        O  0.38848094  0.77379414  0.56638753    -0.78900
O846        O  0.41535115  0.84923319  0.68705617    -0.79000
O847        O  0.33443630  0.77162316  0.56624394    -0.78900
O848        O  0.43590199  0.77187263  0.61507790    -0.78900
O849        O  0.35674372  0.86681924  0.58575090    -0.78900
C850        C  0.33036172  0.85894175  0.57215395     1.10800
C851        C  0.44659751  0.79960624  0.62047215     1.10700
C852        C  0.41713541  0.87470608  0.66893965     1.10800
C853        C  0.36142098  0.77382754  0.55156991     1.10700
O854        O  0.31732357  0.74939839  0.63157043    -0.78900
O855        O  0.35592278  0.81704219  0.69331028    -0.79000
O856        O  0.31607467  0.86043268  0.63549038    -0.78900
O857        O  0.39233618  0.73660540  0.65460627    -0.78900
O858        O  0.40816237  0.77763901  0.68592198    -0.78900
O859        O  0.30291030  0.81036031  0.64704926    -0.78900
O860        O  0.35420674  0.72632115  0.60195295    -0.78900
O861        O  0.35035790  0.86497059  0.67274524    -0.78900
Co862      Co  0.32037799  0.79121957  0.60820131     1.51500
Co863      Co  0.39151368  0.81716815  0.66129443     1.51700
Co864      Co  0.36272165  0.84771747  0.62882177     1.51600
Co865      Co  0.39121460  0.75616070  0.61067188     1.51500
O866        O  0.36581264  0.79698434  0.62665055    -1.40800
C867        C  0.32819469  0.72464838  0.61763411     1.10700
C868        C  0.34618641  0.84587434  0.69640854     1.10800
C869        C  0.29577481  0.83982353  0.64566768     1.10800
C870        C  0.40037624  0.74781942  0.68201497     1.10700
O871        O  0.29250119  0.62827221  0.82732587    -0.78900
O872        O  0.37538916  0.68163415  0.77886486    -0.78900
O873        O  0.36093687  0.69892076  0.84452114    -0.78900
O874        O  0.35414661  0.60194969  0.73695745    -0.78900
O875        O  0.41138824  0.70404365  0.82790711    -0.79000
O876        O  0.31115187  0.61238715  0.76687533    -0.78900
O877        O  0.40193813  0.64942154  0.74651550    -0.78900
O878        O  0.31694914  0.67423190  0.83455071    -0.78900
C879        C  0.29157212  0.65852419  0.83185619     1.10800
C880        C  0.38951961  0.67699196  0.75222739     1.10700
C881        C  0.38529494  0.71675314  0.83708086     1.10800
C882        C  0.32378327  0.60811559  0.73946157     1.10700
O883        O  0.34136147  0.55347930  0.79280524    -0.78900
O884        O  0.42001426  0.64613406  0.85841483    -0.79000
O885        O  0.32879133  0.62296882  0.88170700    -0.78900
O886        O  0.43574743  0.60394808  0.79112141    -0.78900
O887        O  0.43870743  0.65593719  0.79721952    -0.78900
O888        O  0.33248633  0.57733452  0.85437781    -0.78900
O889        O  0.39286028  0.56016363  0.78100344    -0.78900
O890        O  0.37969587  0.65902748  0.88810773    -0.78900
Co891      Co  0.32480899  0.59589909  0.81010255     1.51500
Co892      Co  0.39559886  0.66186851  0.81826682     1.51700
Co893      Co  0.35414877  0.64973330  0.84876978     1.51600
Co894      Co  0.39382528  0.60551228  0.76746234     1.51500
O895        O  0.37037992  0.62042338  0.81063814    -1.40800
C896        C  0.36934899  0.54220772  0.78721640     1.10700
C897        C  0.40969717  0.65573387  0.88569316     1.10800
C898        C  0.32577854  0.59214735  0.88051301     1.10800
C899        C  0.45225435  0.62857729  0.79732558     1.10700
O900        O  0.17430356  0.68841214  0.64078019    -0.78900
O901        O  0.22477908  0.62392068  0.67594369    -0.78900
O902        O  0.14575138  0.63447579  0.67864707    -0.78900
O903        O  0.25524360  0.63402690  0.59110541    -0.78900
O904        O  0.17297158  0.59643161  0.70656445    -0.79000
O905        O  0.23341065  0.67265229  0.62045448    -0.78900
O906        O  0.25160136  0.59230545  0.64224265    -0.78900
O907        O  0.12532460  0.67014978  0.63310840    -0.78900
C908        C  0.14421258  0.69189433  0.64318307     1.10800
C909        C  0.25094171  0.60922642  0.66828231     1.10700
C910        C  0.15598656  0.62216375  0.70548497     1.10800
C911        C  0.25784849  0.65956163  0.60795372     1.10700
O912        O  0.20741232  0.65592806  0.55714145    -0.78900
O913        O  0.13798091  0.57788397  0.65374654    -0.79000
O914        O  0.12649644  0.62327491  0.58294197    -0.78900
O915        O  0.19928219  0.55700654  0.60748742    -0.78900
O916        O  0.20198518  0.56094430  0.66021772    -0.78900
O917        O  0.14629047  0.67262354  0.57709238    -0.78900
O918        O  0.20274575  0.60220792  0.55795885    -0.78900
O919        O  0.09745149  0.61168415  0.64080696    -0.78900
Co920      Co  0.19054270  0.67002211  0.60035794     1.51500
Co921      Co  0.18190336  0.60467347  0.66264726     1.51700
Co922      Co  0.13958317  0.62399687  0.62946491     1.51600
Co923      Co  0.22430831  0.59737292  0.60037507     1.51500
O924        O  0.18686291  0.62464380  0.61868625    -1.40800
C925        C  0.20324590  0.62901044  0.54280743     1.10700
C926        C  0.10694866  0.58412357  0.65073381     1.10800
C927        C  0.12462351  0.65147429  0.57020637     1.10800
C928        C  0.20040998  0.54378853  0.63509619     1.10700
O929        O  0.18708948  0.90488158  0.66226149    -0.78900
O930        O  0.06273861  0.84155883  0.70013477    -0.78900
O931        O  0.12883654  0.83953924  0.60422553    -0.78900
O932        O  0.12054455  0.93345732  0.71405038    -0.78900
O933        O  0.08767911  0.84402937  0.63802707    -0.79000
O934        O  0.17308932  0.92533409  0.72235023    -0.78900
O935        O  0.06926894  0.89395940  0.70241432    -0.78900
O936        O  0.14227383  0.89986181  0.63224976    -0.78900
C937        C  0.16980498  0.91319961  0.63762931     1.10800
C938        C  0.05126031  0.86978917  0.69836337     1.10700
C939        C  0.09871623  0.83672650  0.60936826     1.10800
C940        C  0.14915122  0.94412930  0.71683088     1.10700
O941        O  0.17840326  0.85925617  0.74783394    -0.78900
O942        O  0.08929877  0.78994309  0.67351526    -0.79000
O943        O  0.18354689  0.84816530  0.63816600    -0.78900
O944        O  0.09225697  0.84887387  0.75401420    -0.78900
O945        O  0.12008974  0.81256559  0.72668477    -0.78900
O946        O  0.19130559  0.83773796  0.68853882    -0.78900
O947        O  0.14237533  0.89291904  0.76715083    -0.78900
O948        O  0.13906098  0.80395079  0.65814358    -0.78900
Co949      Co  0.18029592  0.88038672  0.70489501     1.51500
Co950      Co  0.10664639  0.83062387  0.68420333     1.51700
Co951      Co  0.13695084  0.85401089  0.64749453     1.51600
Co952      Co  0.10730678  0.89103230  0.73164114     1.51500
O953        O  0.13360075  0.87000416  0.69457700    -1.40800
C954        C  0.16775829  0.87557636  0.77118365     1.10700
C955        C  0.11713100  0.78222452  0.66356701     1.10800
C956        C  0.20233299  0.84006335  0.66063324     1.10800
C957        C  0.10348496  0.81999671  0.75120276     1.10700
O958        O  0.19862025  0.67606664  0.89056230    -0.78900
O959        O  0.07720828  0.72317284  0.82342157    -0.78900
O960        O  0.15242026  0.63588659  0.81153994    -0.78900
O961        O  0.16304877  0.75342901  0.88194872    -0.78900
O962        O  0.12304149  0.68024006  0.80428378    -0.79000
O963        O  0.17726834  0.72734469  0.92600056    -0.78900
O964        O  0.11964028  0.75089567  0.83732483    -0.78900
O965        O  0.18062248  0.68747010  0.84118848    -0.78900
C966        C  0.20363315  0.68375450  0.86105265     1.10800
C967        C  0.09595347  0.74726031  0.81879342     1.10700
C968        C  0.13973161  0.65638813  0.79287473     1.10800
C969        C  0.18160170  0.75016225  0.90566887     1.10700
O970        O  0.12107618  0.68924182  0.94493667    -0.78900
O971        O  0.06522045  0.65527571  0.82098973    -0.79000
O972        O  0.16745314  0.62675140  0.87049958    -0.78900
O973        O  0.06804025  0.73760724  0.88552983    -0.78900
O974        O  0.06097347  0.68473254  0.88037139    -0.78900
O975        O  0.14644301  0.63548778  0.91744506    -0.78900
O976        O  0.11598505  0.74150452  0.93360959    -0.78900
O977        O  0.10174175  0.62969887  0.85125929    -0.78900
Co978      Co  0.15827122  0.68243625  0.91728300     1.51500
Co979      Co  0.09392494  0.68168946  0.84575727     1.51700
Co980      Co  0.14160539  0.66107387  0.84745017     1.51600
Co981      Co  0.11719969  0.74287251  0.88412698     1.51500
O982        O  0.12803047  0.69491367  0.87902426    -1.40800
C983        C  0.11509125  0.71774463  0.95360134     1.10700
C984        C  0.07655057  0.62869722  0.83223864     1.10800
C985        C  0.16207838  0.61701833  0.89887254     1.10800
C986        C  0.04991779  0.71258100  0.88726535     1.10700
O987        O  0.30545446  0.90741227  0.78952930    -0.78900
O988        O  0.27028728  0.81391467  0.87529802    -0.78900
O989        O  0.37499307  0.83314078  0.84572401    -0.78900
O990        O  0.24167130  0.89542105  0.86674474    -0.78900
O991        O  0.32774398  0.81015746  0.84260193    -0.79000
O992        O  0.26526994  0.87040727  0.82608366    -0.78900
O993        O  0.25081161  0.84690878  0.91222446    -0.78900
O994        O  0.34071087  0.86967038  0.80664796    -0.78900
C995        C  0.32429542  0.88366743  0.78370572     1.10800
C996        C  0.24927046  0.82053268  0.89639940     1.10700
C997        C  0.35785826  0.80906167  0.83817622     1.10800
C998        C  0.23979020  0.88115348  0.83925916     1.10700
O999        O  0.28426062  0.93593762  0.84686465    -0.78900
O1000       O  0.36267269  0.82280154  0.90345491    -0.79000
O1001       O  0.39294107  0.89599694  0.83784622    -0.78900
O1002       O  0.30516113  0.88078821  0.93923351    -0.78900
O1003       O  0.30537590  0.82720912  0.93417985    -0.78900
O1004       O  0.34710256  0.92468961  0.83739513    -0.78900
O1005       O  0.29603971  0.93151156  0.89829234    -0.78900
O1006       O  0.37599630  0.87477170  0.89950538    -0.78900
Co1007     Co  0.30628720  0.89400046  0.83354608     1.51500
Co1008     Co  0.31588059  0.82090259  0.88730660     1.51700
Co1009     Co  0.35543876  0.87635071  0.85529555     1.51600
Co1010     Co  0.27593150  0.88818567  0.90257504     1.51500
O1011       O  0.31169704  0.86830216  0.87460373    -1.40800
C1012       C  0.29090843  0.94916679  0.87387587     1.10700
C1013       C  0.38164087  0.84623095  0.91062895     1.10800
C1014       C  0.37812055  0.92258773  0.83267955     1.10800
C1015       C  0.30745610  0.85268316  0.95124259     1.10700
O1016       O  0.18679459  0.62906831  0.30039664    -0.78900
O1017       O  0.23350043  0.66269689  0.36414620    -0.78900
O1018       O  0.15540670  0.67223388  0.34977737    -0.78900
O1019       O  0.26007306  0.57453803  0.35973570    -0.78900
O1020       O  0.18211925  0.69744454  0.38911088    -0.79000
O1021       O  0.24266483  0.60591317  0.32066312    -0.78900
O1022       O  0.25657325  0.62793253  0.39829493    -0.78900
O1023       O  0.13535350  0.62615254  0.31261334    -0.78900
C1024       C  0.15765295  0.63192154  0.29220862     1.10800
C1025       C  0.25806139  0.65342649  0.38058075     1.10700
C1026       C  0.16401296  0.69844820  0.36426605     1.10800
C1027       C  0.26518140  0.59039056  0.33378922     1.10700
O1028       O  0.21089570  0.54361805  0.33839332    -0.78900
O1029       O  0.14699090  0.64469503  0.40759766    -0.79000
O1030       O  0.12817068  0.57787846  0.36068045    -0.78900
O1031       O  0.20075206  0.59827132  0.43221657    -0.78900
O1032       O  0.20787573  0.65034906  0.42722628    -0.78900
O1033       O  0.15537520  0.56778837  0.31552786    -0.78900
O1034       O  0.20267130  0.54861188  0.39115681    -0.78900
O1035       O  0.10445019  0.64130656  0.37433300    -0.78900
Co1036     Co  0.19920879  0.58816294  0.32068267     1.51500
Co1037     Co  0.19000931  0.65262731  0.38210871     1.51700
Co1038     Co  0.14549954  0.62355251  0.36055615     1.51600
Co1039     Co  0.22742691  0.58821305  0.39409325     1.51500
O1040       O  0.19255859  0.60808025  0.36418593    -1.40800
C1041       C  0.20186805  0.53205811  0.36570754     1.10700
C1042       C  0.11653137  0.64946886  0.40179806     1.10800
C1043       C  0.13141199  0.56223829  0.33405712     1.10800
C1044       C  0.20309843  0.62576854  0.44487881     1.10700
O1045       O  0.32201829  0.58439725  0.14889157    -0.78900
O1046       O  0.43098067  0.65658785  0.21763747    -0.78900
O1047       O  0.38476616  0.65691793  0.11037752    -0.78900
O1048       O  0.38921304  0.55736389  0.20441071    -0.78900
O1049       O  0.41765884  0.65668473  0.15317005    -0.79000
O1050       O  0.33533289  0.55648343  0.20725349    -0.78900
O1051       O  0.43388760  0.60544401  0.20659703    -0.78900
O1052       O  0.37153358  0.59429347  0.13068342    -0.78900
C1053       C  0.34434158  0.57984903  0.12770323     1.10800
C1054       C  0.44767952  0.63213417  0.21084919     1.10700
C1055       C  0.41228268  0.66318998  0.12283929     1.10800
C1056       C  0.36259690  0.54225605  0.20418911     1.10700
O1057       O  0.31677367  0.61460961  0.24143140    -0.78900
O1058       O  0.40190948  0.70612743  0.19239598    -0.79000
O1059       O  0.32432252  0.64376844  0.13413930    -0.78900
O1060       O  0.39630267  0.63598120  0.26137150    -0.78900
O1061       O  0.36595450  0.67202995  0.23552416    -0.78900
O1062       O  0.30269887  0.64413508  0.18254327    -0.78900
O1063       O  0.35669874  0.58348172  0.25911664    -0.78900
O1064       O  0.36085246  0.68757242  0.16253829    -0.78900
Co1065     Co  0.32149586  0.60166792  0.19531474     1.51500
Co1066     Co  0.38892362  0.66271358  0.19497121     1.51700
Co1067     Co  0.36982654  0.63870268  0.14979063     1.51600
Co1068     Co  0.39319400  0.59685062  0.23019653     1.51500
O1069       O  0.36689761  0.61985502  0.19472863    -1.40800
C1070       C  0.33010251  0.59804303  0.26378663     1.10700
C1071       C  0.37712189  0.71115743  0.17519589     1.10800
C1072       C  0.30123760  0.65114334  0.15276116     1.10800
C1073       C  0.37956042  0.66238160  0.26128450     1.10700
O1074       O  0.41178703  0.84713522  0.34414467    -0.78900
O1075       O  0.33204949  0.76975875  0.43832260    -0.78900
O1076       O  0.36322680  0.85745150  0.41564428    -0.78900
O1077       O  0.43156956  0.78341427  0.39329113    -0.78900
O1078       O  0.31665703  0.83109723  0.42136262    -0.79000
O1079       O  0.43053004  0.78443547  0.34013215    -0.78900
O1080       O  0.38537156  0.77620923  0.43963448    -0.78900
O1081       O  0.37780075  0.88720913  0.35647326    -0.78900
C1082       C  0.40481356  0.87802381  0.34466611     1.10800
C1083       C  0.35848829  0.77383745  0.45381843     1.10700
C1084       C  0.33546876  0.85439418  0.42934166     1.10800
C1085       C  0.44628053  0.78541079  0.36661126     1.10700
O1086       O  0.36663117  0.76090937  0.32173416    -0.78900
O1087       O  0.30396084  0.80868041  0.35497733    -0.79000
O1088       O  0.35474628  0.83965529  0.31890804    -0.78900
O1089       O  0.35427185  0.72472190  0.40264250    -0.78900
O1090       O  0.31729813  0.74795980  0.37225018    -0.78900
O1091       O  0.39353833  0.81367831  0.29145735    -0.78900
O1092       O  0.39890229  0.73357168  0.35471107    -0.78900
O1093       O  0.31771291  0.85803759  0.36629294    -0.78900
Co1094     Co  0.38562035  0.80322796  0.33545257     1.51500
Co1095     Co  0.31969848  0.78943954  0.39517633     1.51700
Co1096     Co  0.36452179  0.84475861  0.36864243     1.51600
Co1097     Co  0.39149468  0.75745445  0.39687245     1.51500
O1098       O  0.36528121  0.79648479  0.37925718    -1.40800
C1099       C  0.38123096  0.73475719  0.32936684     1.10700
C1100       C  0.29644390  0.83790336  0.35765202     1.10800
C1101       C  0.36852612  0.83182223  0.29202697     1.10800
C1102       C  0.32822133  0.72296613  0.38589136     1.10700
O1103       O  0.15325009  0.68172732  0.19074108    -0.78900
O1104       O  0.17303839  0.73654208  0.12539474    -0.78900
O1105       O  0.19045334  0.66302014  0.13512028    -0.78900
O1106       O  0.09011854  0.75921725  0.14715404    -0.78900
O1107       O  0.20721318  0.69126591  0.09190739    -0.79000
O1108       O  0.12657545  0.73965583  0.18106820    -0.78900
O1109       O  0.13315576  0.76019898  0.09831513    -0.78900
O1110       O  0.14731560  0.63263617  0.17466123    -0.78900
C1111       C  0.15392189  0.65215832  0.19707857     1.10800
C1112       C  0.16063544  0.76150728  0.11236606     1.10700
C1113       C  0.21340421  0.67545654  0.11767740     1.10800
C1114       C  0.10954429  0.76287871  0.17091638     1.10700
O1115       O  0.06380256  0.70961740  0.17082381    -0.78900
O1116       O  0.15791743  0.65057924  0.07958366    -0.79000
O1117       O  0.09687750  0.63073921  0.12955124    -0.78900
O1118       O  0.09960376  0.70573100  0.06761016    -0.78900
O1119       O  0.15149224  0.71462034  0.06267813    -0.78900
O1120       O  0.08956555  0.65053590  0.17903200    -0.78900
O1121       O  0.05909421  0.70288193  0.11793939    -0.78900
O1122       O  0.15888642  0.60943186  0.11455037    -0.78900
Co1123     Co  0.10972990  0.69564440  0.17836219     1.51500
Co1124     Co  0.16368612  0.69415903  0.10565492     1.51700
Co1125     Co  0.14157413  0.64909585  0.12902113     1.51600
Co1126     Co  0.09650156  0.72937177  0.10853306     1.51500
O1127       O  0.12271460  0.69398772  0.13142562    -1.40800
C1128       C  0.04697120  0.70379634  0.14573560     1.10700
C1129       C  0.16440466  0.62044014  0.08634224     1.10800
C1130       C  0.08320921  0.62927835  0.15729546     1.10800
C1131       C  0.12347448  0.71234929  0.05007878     1.10700
O1132       O  0.19495708  0.84599942  0.31741369    -0.78900
O1133       O  0.13178810  0.82080333  0.26291925    -0.78900
O1134       O  0.14247105  0.80923130  0.34191185    -0.78900
O1135       O  0.14688520  0.90367881  0.23769296    -0.78900
O1136       O  0.10325189  0.78657525  0.31253290    -0.79000
O1137       O  0.18362378  0.86982333  0.25762719    -0.78900
O1138       O  0.10039420  0.85842274  0.24037090    -0.78900
O1139       O  0.17930015  0.85486577  0.36652400    -0.78900
C1140       C  0.20129983  0.84674061  0.34701212     1.10800
C1141       C  0.11625776  0.83187913  0.23863209     1.10700
C1142       C  0.12768722  0.78394370  0.33122001     1.10800
C1143       C  0.17147246  0.88521704  0.23406462     1.10700
O1144       O  0.17169378  0.93244375  0.28478222    -0.78900
O1145       O  0.08668196  0.83973602  0.34760524    -0.79000
O1146       O  0.13189542  0.90432136  0.36445782    -0.78900
O1147       O  0.06962451  0.89180198  0.29473413    -0.78900
O1148       O  0.06916259  0.83905514  0.28769782    -0.78900
O1149       O  0.18172610  0.91074065  0.34537918    -0.78900
O1150       O  0.11885568  0.93669545  0.29314287    -0.78900
O1151       O  0.11845358  0.84443554  0.39121289    -0.78900
Co1152     Co  0.18131992  0.88825458  0.30109319     1.51500
Co1153     Co  0.11356913  0.83099949  0.30575221     1.51700
Co1154     Co  0.13346548  0.85854041  0.35034498     1.51600
Co1155     Co  0.10967894  0.89701121  0.26899176     1.51500
O1156       O  0.13540952  0.87342149  0.30394076    -1.40800
C1157       C  0.14700582  0.94869797  0.29291930     1.10700
C1158       C  0.09099244  0.83820082  0.37847445     1.10800
C1159       C  0.15969906  0.91756866  0.36633262     1.10800
C1160       C  0.05425906  0.86540123  0.29311716     1.10700
O1161       O  0.34685199  0.91178943  0.15688246    -0.78900
O1162       O  0.28194717  0.82871781  0.06155149    -0.78900
O1163       O  0.36118266  0.86547219  0.08776560    -0.78900
O1164       O  0.29214843  0.92942667  0.10430138    -0.78900
O1165       O  0.34121163  0.81554552  0.08353519    -0.79000
O1166       O  0.28547728  0.92878296  0.15702665    -0.78900
O1167       O  0.29037729  0.88160786  0.05836524    -0.78900
O1168       O  0.38957286  0.88008656  0.14711476    -0.78900
C1169       C  0.37781167  0.90652177  0.15782942     1.10800
C1170       C  0.29089599  0.85368069  0.04594786     1.10700
C1171       C  0.36079914  0.83766786  0.07424050     1.10800
C1172       C  0.29083769  0.94420438  0.13099661     1.10700
O1173       O  0.26153706  0.86553652  0.17380981    -0.78900
O1174       O  0.31410589  0.80147363  0.14773053    -0.79000
O1175       O  0.34123649  0.85669252  0.18383640    -0.78900
O1176       O  0.23474834  0.85267595  0.09046268    -0.78900
O1177       O  0.25401759  0.81576567  0.12436528    -0.78900
O1178       O  0.31073534  0.89382465  0.20864992    -0.78900
O1179       O  0.23800876  0.89755592  0.13731208    -0.78900
O1180       O  0.36297882  0.82002490  0.13903982    -0.78900
Co1181     Co  0.30411413  0.88451266  0.16409363     1.51500
Co1182     Co  0.29766076  0.81737140  0.10596992     1.51700
Co1183     Co  0.34806319  0.86571866  0.13400582     1.51600
Co1184     Co  0.26630582  0.88958347  0.09825260     1.51500
O1185       O  0.30153371  0.86335635  0.12114868    -1.40800
C1186       C  0.23682907  0.88073952  0.16328717     1.10700
C1187       C  0.34435275  0.79860079  0.15040358     1.10800
C1188       C  0.33048428  0.87009588  0.20983789     1.10800
C1189       C  0.23072095  0.82783938  0.10849745     1.10700
O1190       O  0.84395387  0.58682961  0.31437320    -0.78900
O1191       O  0.78854143  0.65822912  0.43104371    -0.78900
O1192       O  0.88515157  0.66207244  0.37569686    -0.78900
O1193       O  0.79169375  0.56076348  0.38240026    -0.78900
O1194       O  0.84985238  0.65818038  0.41370414    -0.79000
O1195       O  0.78439887  0.56431874  0.32935494    -0.78900
O1196       O  0.79358575  0.60537118  0.43133034    -0.78900
O1197       O  0.87284981  0.60391835  0.35606368    -0.78900
C1198       C  0.86932207  0.58473844  0.33251842     1.10800
C1199       C  0.79302877  0.63203445  0.44634814     1.10700
C1200       C  0.87871114  0.66500867  0.40483670     1.10800
C1201       C  0.78941115  0.54792676  0.35491055     1.10700
O1202       O  0.75636823  0.62871339  0.31809886    -0.78900
O1203       O  0.81219177  0.70850467  0.39716327    -0.79000
O1204       O  0.86301488  0.64708667  0.30578875    -0.78900
O1205       O  0.74039990  0.63983644  0.39945282    -0.78900
O1206       O  0.76414735  0.67571016  0.36797052    -0.78900
O1207       O  0.81195021  0.65113065  0.30074887    -0.78900
O1208       O  0.73627643  0.59400007  0.35237919    -0.78900
O1209       O  0.83528039  0.69327895  0.35002479    -0.78900
Co1210     Co  0.79931431  0.60899006  0.31857993     1.51500
Co1211     Co  0.80738063  0.66524166  0.38730735     1.51700
Co1212     Co  0.84915237  0.64488600  0.35166434     1.51600
Co1213     Co  0.76848619  0.60099324  0.39029198     1.51500
O1214       O  0.80637156  0.62308391  0.36570927    -1.40800
C1215       C  0.73295673  0.61212472  0.32738394     1.10700
C1216       C  0.82391898  0.71505296  0.36963132     1.10800
C1217       C  0.83914130  0.65112437  0.28764404     1.10800
C1218       C  0.73919667  0.66584064  0.38297560     1.10700
O1219       O  0.59007193  0.81282309  0.29087481    -0.78900
O1220       O  0.67613751  0.75622736  0.36968148    -0.78900
O1221       O  0.67280722  0.86427978  0.35444410    -0.78900
O1222       O  0.59430950  0.73777361  0.35731065    -0.78900
O1223       O  0.68999781  0.81494968  0.34749118    -0.79000
O1224       O  0.62309042  0.76412271  0.32093874    -0.78900
O1225       O  0.64159237  0.73443887  0.40352934    -0.78900
O1226       O  0.63276301  0.83936393  0.31113808    -0.78900
C1227       C  0.61639416  0.82796749  0.28693778     1.10800
C1228       C  0.66665884  0.73221111  0.38564987     1.10700
C1229       C  0.69452595  0.84486891  0.34508047     1.10800
C1230       C  0.60931381  0.73831460  0.33035707     1.10700
O1231       O  0.56030457  0.78616504  0.34122909    -0.78900
O1232       O  0.67831097  0.84284542  0.41220803    -0.79000
O1233       O  0.61213425  0.89124799  0.34625370    -0.78900
O1234       O  0.61102182  0.78768649  0.43773333    -0.78900
O1235       O  0.66453687  0.78246087  0.43435476    -0.78900
O1236       O  0.57778922  0.84973215  0.34346462    -0.78900
O1237       O  0.56124259  0.78956174  0.39390240    -0.78900
O1238       O  0.63010017  0.86644653  0.40639662    -0.78900
Co1239     Co  0.60364415  0.80634555  0.33392428     1.51500
Co1240     Co  0.67474362  0.79903279  0.38959067     1.51700
Co1241     Co  0.62689712  0.84996335  0.36077960     1.51600
Co1242     Co  0.60306663  0.76534091  0.39717553     1.51500
O1243       O  0.62790059  0.80317561  0.37572948    -1.40800
C1244       C  0.54537208  0.78849566  0.36771859     1.10700
C1245       C  0.65838502  0.86557198  0.41944094     1.10800
C1246       C  0.58391494  0.88049485  0.34002632     1.10800
C1247       C  0.63864321  0.78587259  0.45074112     1.10700
O1248       O  0.71117553  0.60674786  0.17794355    -0.78900
O1249       O  0.62171228  0.68254467  0.23436765    -0.78900
O1250       O  0.63863514  0.67662184  0.12603400    -0.78900
O1251       O  0.64048696  0.60006939  0.25281587    -0.78900
O1252       O  0.64476938  0.69555997  0.17512253    -0.79000
O1253       O  0.67622846  0.63223665  0.22924773    -0.78900
O1254       O  0.59136065  0.64428572  0.25554231    -0.78900
O1255       O  0.68284898  0.64163341  0.14751750    -0.78900
C1256       C  0.71002332  0.63002709  0.15754552     1.10800
C1257       C  0.60715918  0.67072746  0.25837614     1.10700
C1258       C  0.64791407  0.69868448  0.14507866     1.10800
C1259       C  0.66640154  0.61672092  0.25413467     1.10700
O1260       O  0.66153690  0.56879350  0.20480206    -0.78900
O1261       O  0.58192631  0.68062185  0.14542890    -0.79000
O1262       O  0.64808421  0.61548717  0.09979611    -0.78900
O1263       O  0.55988432  0.61215723  0.20121524    -0.78900
O1264       O  0.55927264  0.66572648  0.20621133    -0.78900
O1265       O  0.65941247  0.58527122  0.14327904    -0.78900
O1266       O  0.60851403  0.56621627  0.19975633    -0.78900
O1267       O  0.58745619  0.63093593  0.12606266    -0.78900
Co1268     Co  0.66602458  0.61340780  0.18585634     1.51500
Co1269     Co  0.60346168  0.67869924  0.19048402     1.51700
Co1270     Co  0.63379887  0.63068988  0.14085053     1.51600
Co1271     Co  0.60083436  0.60671234  0.22449349     1.51500
O1272       O  0.62153032  0.63309838  0.18791132    -1.40800
C1273       C  0.63587697  0.55226105  0.20133292     1.10700
C1274       C  0.57513829  0.65941202  0.12380393     1.10800
C1275       C  0.66037243  0.58980583  0.11215410     1.10800
C1276       C  0.54478124  0.63874477  0.20288529     1.10700
O1277       O  0.68456423  0.84970658  0.19671673    -0.78900
O1278       O  0.73298303  0.82312013  0.12674158    -0.78900
O1279       O  0.65968895  0.81158580  0.13753318    -0.78900
O1280       O  0.76296769  0.90757830  0.14580868    -0.78900
O1281       O  0.68422697  0.79486094  0.09238250    -0.79000
O1282       O  0.74335757  0.87405912  0.18226257    -0.78900
O1283       O  0.75926168  0.86091380  0.09929028    -0.78900
O1284       O  0.63558057  0.85624489  0.17813522    -0.78900
C1285       C  0.65451394  0.84619780  0.19984832     1.10800
C1286       C  0.75887974  0.83361889  0.11398004     1.10700
C1287       C  0.66934974  0.78875536  0.11824976     1.10800
C1288       C  0.76668157  0.89035497  0.17141153     1.10700
O1289       O  0.71393718  0.93731819  0.16939830    -0.78900
O1290       O  0.64531351  0.84635862  0.08384381    -0.79000
O1291       O  0.63373619  0.90764513  0.13395473    -0.78900
O1292       O  0.70609706  0.89688866  0.06643926    -0.78900
O1293       O  0.71067549  0.84439259  0.06565630    -0.78900
O1294       O  0.65456936  0.91366968  0.18315708    -0.78900
O1295       O  0.70772728  0.94086374  0.11607771    -0.78900
O1296       O  0.60726844  0.84758104  0.12175471    -0.78900
Co1297     Co  0.69920461  0.89214716  0.18031229     1.51500
Co1298     Co  0.69048485  0.83665351  0.10824794     1.51700
Co1299     Co  0.64924836  0.86181945  0.13258855     1.51600
Co1300     Co  0.73123382  0.90052456  0.10792143     1.51500
O1301       O  0.69521848  0.87754813  0.13355083    -1.40800
C1302       C  0.70797676  0.95363284  0.14380424     1.10700
C1303       C  0.61513752  0.84232895  0.09269143     1.10800
C1304       C  0.63304610  0.92099816  0.16181230     1.10800
C1305       C  0.70691065  0.87064853  0.05076694     1.10700
O1306       O  0.91450804  0.66004421  0.17352922    -0.78900
O1307       O  0.84225196  0.72151431  0.05983673    -0.78900
O1308       O  0.84959532  0.61478810  0.10842951    -0.78900
O1309       O  0.94013021  0.71611600  0.11097624    -0.78900
O1310       O  0.84567950  0.65736027  0.07546429    -0.79000
O1311       O  0.93583877  0.72098760  0.16427630    -0.78900
O1312       O  0.89472953  0.71542538  0.06285812    -0.78900
O1313       O  0.90944039  0.64218749  0.12315834    -0.78900
C1314       C  0.92227989  0.63967699  0.15114624     1.10800
C1315       C  0.86989989  0.72144813  0.04624114     1.10700
C1316       C  0.84185556  0.62663162  0.08089502     1.10800
C1317       C  0.95203739  0.71432436  0.13926778     1.10700
O1318       O  0.87403776  0.74952601  0.17696880    -0.78900
O1319       O  0.79060002  0.68939170  0.09209199    -0.79000
O1320       O  0.85874136  0.64005771  0.17040988    -0.78900
O1321       O  0.85828259  0.76737941  0.09682008    -0.78900
O1322       O  0.82142769  0.73923171  0.12398409    -0.78900
O1323       O  0.84935338  0.68927597  0.18631370    -0.78900
O1324       O  0.90738637  0.76969301  0.14064118    -0.78900
O1325       O  0.81474933  0.66361710  0.13306860    -0.78900
Co1326     Co  0.89179755  0.70500874  0.17334548     1.51500
Co1327     Co  0.83485723  0.69873188  0.10294616     1.51700
Co1328     Co  0.86352473  0.65588238  0.12420890     1.51600
Co1329     Co  0.89927043  0.73960335  0.10330127     1.51500
O1330       O  0.87704745  0.70266547  0.12708783    -1.40800
C1331       C  0.89056972  0.77292208  0.16607061     1.10700
C1332       C  0.78909604  0.67142539  0.11724530     1.10800
C1333       C  0.84897763  0.65950338  0.19199394     1.10800
C1334       C  0.83115512  0.76574207  0.11192710     1.10700
O1335       O  0.85394853  0.80608067  0.31389878    -0.78900
O1336       O  0.82655359  0.87185825  0.26545713    -0.78900
O1337       O  0.80991348  0.85910997  0.34021881    -0.78900
O1338       O  0.91278889  0.86313511  0.24247852    -0.78900
O1339       O  0.79016822  0.90085041  0.31184714    -0.79000
O1340       O  0.88110223  0.82380865  0.25912187    -0.78900
O1341       O  0.86237819  0.90539153  0.24428826    -0.78900
O1342       O  0.85580336  0.82129863  0.36427644    -0.78900
C1343       C  0.84643281  0.80200189  0.34290029     1.10800
C1344       C  0.83664948  0.88833775  0.24151951     1.10700
C1345       C  0.78568010  0.87527031  0.32792556     1.10800
C1346       C  0.89640619  0.83770140  0.23685896     1.10700
O1347       O  0.94167010  0.83811278  0.29247344    -0.78900
O1348       O  0.83738134  0.91354519  0.35537793    -0.79000
O1349       O  0.90422593  0.86706118  0.37322114    -0.78900
O1350       O  0.89192521  0.93653073  0.30205345    -0.78900
O1351       O  0.84004683  0.93338683  0.29223557    -0.78900
O1352       O  0.91493857  0.81976850  0.35011100    -0.78900
O1353       O  0.94111382  0.89140041  0.29997053    -0.78900
O1354       O  0.84191010  0.87614578  0.39429511    -0.78900
Co1355     Co  0.89640630  0.82420444  0.30394604     1.51500
Co1356     Co  0.83415082  0.88944807  0.30953105     1.51700
Co1357     Co  0.85960707  0.86748903  0.35358965     1.51600
Co1358     Co  0.90100314  0.89804241  0.27496009     1.51500
O1359       O  0.87814429  0.86927961  0.30863206    -1.40800
C1360       C  0.95618681  0.86471512  0.29806331     1.10700
C1361       C  0.83311312  0.90427714  0.38533958     1.10800
C1362       C  0.91926429  0.83983429  0.37342893     1.10800
C1363       C  0.86442935  0.94976963  0.29964789     1.10700
O1364       O  0.16054938  0.41508602  0.31357217    -0.78900
O1365       O  0.20411484  0.32737830  0.44683046    -0.78900
O1366       O  0.13352359  0.37150479  0.40627214    -0.78900
O1367       O  0.21731488  0.42830932  0.39757149    -0.78900
O1368       O  0.14593100  0.31993296  0.41584999    -0.79000
O1369       O  0.17000865  0.41870312  0.37676640    -0.78900
O1370       O  0.20538043  0.38129796  0.44568836    -0.78900
O1371       O  0.11804596  0.39319311  0.33988259    -0.78900
C1372       C  0.12930639  0.41323511  0.31828779     1.10800
C1373       C  0.20280361  0.35468392  0.46097876     1.10700
C1374       C  0.12718221  0.34434175  0.41995946     1.10800
C1375       C  0.19047835  0.43839470  0.38694454     1.10700
O1376       O  0.23004340  0.41311321  0.33682773    -0.78900
O1377       O  0.17998670  0.29757649  0.35896346    -0.79000
O1378       O  0.15958084  0.35345440  0.31481921    -0.78900
O1379       O  0.25828327  0.34482679  0.42122454    -0.78900
O1380       O  0.23913166  0.30470784  0.39140041    -0.78900
O1381       O  0.20952276  0.36191898  0.31173242    -0.78900
O1382       O  0.26265451  0.38479765  0.36881078    -0.78900
O1383       O  0.13307089  0.32373695  0.35652320    -0.78900
Co1384     Co  0.18817459  0.38873615  0.34483122     1.51500
Co1385     Co  0.19280131  0.31445137  0.40142181     1.51700
Co1386     Co  0.15292971  0.36769825  0.36185356     1.51600
Co1387     Co  0.23305954  0.38351718  0.40682644     1.51500
O1388       O  0.19930149  0.35803235  0.38026974    -1.40800
C1389       C  0.25760616  0.39975733  0.34237346     1.10700
C1390       C  0.15037387  0.29873011  0.35103922     1.10800
C1391       C  0.18493164  0.35193979  0.29845108     1.10800
C1392       C  0.26200224  0.31785662  0.40736482     1.10700
O1393       O  0.41809598  0.31290221  0.17685311    -0.78900
O1394       O  0.33936622  0.43061154  0.22168939    -0.78900
O1395       O  0.35608857  0.37841521  0.11998258    -0.78900
O1396       O  0.43888585  0.38579828  0.22753171    -0.78900
O1397       O  0.34587783  0.41138370  0.16110847    -0.79000
O1398       O  0.43811207  0.33261334  0.23548455    -0.78900
O1399       O  0.39235101  0.43145679  0.22006808    -0.78900
O1400       O  0.41563625  0.35985083  0.15035855    -0.78900
C1401       C  0.42781634  0.33128141  0.15391907     1.10800
C1402       C  0.36547447  0.44582729  0.21754213     1.10700
C1403       C  0.34379609  0.40488790  0.13043450     1.10800
C1404       C  0.45306869  0.35868999  0.22816216     1.10700
O1405       O  0.37269524  0.31965132  0.26140334    -0.78900
O1406       O  0.29113076  0.39566358  0.19368399    -0.79000
O1407       O  0.36231664  0.31818753  0.15185532    -0.78900
O1408       O  0.35489295  0.40127349  0.27284060    -0.78900
O1409       O  0.32023100  0.36942659  0.24739911    -0.78900
O1410       O  0.35315239  0.30155922  0.20169931    -0.78900
O1411       O  0.40447660  0.35688414  0.28161040    -0.78900
O1412       O  0.31856475  0.35675069  0.16784999    -0.78900
Co1413     Co  0.39390769  0.31908427  0.21891563     1.51500
Co1414     Co  0.33473832  0.38598191  0.20453085     1.51700
Co1415     Co  0.36856727  0.36462632  0.16298839     1.51600
Co1416     Co  0.39690361  0.39267675  0.24792709     1.51500
O1417       O  0.37814241  0.36482028  0.21112495    -1.40800
C1418       C  0.38788708  0.33110433  0.28511311     1.10700
C1419       C  0.29184562  0.37089437  0.17551925     1.10800
C1420       C  0.35058816  0.29778202  0.17153151     1.10800
C1421       C  0.32757305  0.38667014  0.27181064     1.10700
O1422       O  0.40166555  0.19235320  0.29879422    -0.78900
O1423       O  0.32584745  0.23627606  0.39240496    -0.78900
O1424       O  0.32250352  0.13370066  0.35974863    -0.78900
O1425       O  0.40434984  0.25493179  0.37710527    -0.78900
O1426       O  0.30939105  0.18462672  0.36193196    -0.79000
O1427       O  0.37207021  0.23558094  0.33899649    -0.78900
O1428       O  0.36214308  0.25132584  0.42770186    -0.78900
O1429       O  0.36130050  0.16135058  0.31657698    -0.78900
C1430       C  0.37734850  0.17473536  0.29310023     1.10800
C1431       C  0.33653715  0.25700897  0.41135992     1.10700
C1432       C  0.30221305  0.15625835  0.35468935     1.10800
C1433       C  0.38736702  0.25909456  0.35143945     1.10700
O1434       O  0.43529649  0.20968379  0.35106845    -0.78900
O1435       O  0.32268568  0.14468340  0.42004480    -0.79000
O1436       O  0.38218343  0.10596646  0.34370487    -0.78900
O1437       O  0.39393380  0.19213547  0.45000323    -0.78900
O1438       O  0.34064151  0.19851131  0.45214097    -0.78900
O1439       O  0.41709553  0.14716074  0.34375944    -0.78900
O1440       O  0.43794326  0.19637921  0.40222974    -0.78900
O1441       O  0.37015581  0.12245792  0.40827217    -0.78900
Co1442     Co  0.39130050  0.19175571  0.34326218     1.51500
Co1443     Co  0.32663251  0.19129578  0.40526338     1.51700
Co1444     Co  0.36980133  0.14474542  0.36487070     1.51600
Co1445     Co  0.39855630  0.22112267  0.41291470     1.51500
O1446       O  0.37134120  0.18839525  0.38701956    -1.40800
C1447       C  0.45171828  0.20199877  0.37573451     1.10700
C1448       C  0.34323855  0.12168306  0.42364865     1.10800
C1449       C  0.40988821  0.11744027  0.33626055     1.10800
C1450       C  0.36779615  0.19153221  0.46562322     1.10700
O1451       O  0.19155102  0.08816625  0.34431715    -0.78900
O1452       O  0.06514443  0.14880924  0.30088755    -0.78900
O1453       O  0.13435345  0.15765902  0.39635306    -0.78900
O1454       O  0.12060971  0.05551591  0.30385904    -0.78900
O1455       O  0.09206740  0.15279209  0.36303748    -0.79000
O1456       O  0.17224379  0.06095788  0.28982276    -0.78900
O1457       O  0.06967243  0.09677684  0.30835570    -0.78900
O1458       O  0.14717406  0.09486179  0.37419169    -0.78900
C1459       C  0.17449187  0.08085194  0.36915040     1.10800
C1460       C  0.05227555  0.12177797  0.30639088     1.10700
C1461       C  0.10413398  0.16081466  0.39119787     1.10800
C1462       C  0.14864041  0.04398677  0.29988909     1.10700
O1463       O  0.17528344  0.12311856  0.25571909    -0.78900
O1464       O  0.09352078  0.20192577  0.31998765    -0.79000
O1465       O  0.18879612  0.14631621  0.36138536    -0.78900
O1466       O  0.09353017  0.13069167  0.24944410    -0.78900
O1467       O  0.12270624  0.17044312  0.27015282    -0.78900
O1468       O  0.19519446  0.15141807  0.30988516    -0.78900
O1469       O  0.14091650  0.08483607  0.24354720    -0.78900
O1470       O  0.14240624  0.18840470  0.33934109    -0.78900
Co1471     Co  0.18153557  0.10739820  0.30001565     1.51500
Co1472     Co  0.10979459  0.15980109  0.31507389     1.51700
Co1473     Co  0.14123379  0.13937500  0.35492259     1.51600
Co1474     Co  0.10728137  0.09327981  0.27886823     1.51500
O1475       O  0.13563627  0.11927349  0.31053773    -1.40800
C1476       C  0.16462711  0.10292264  0.23578820     1.10700
C1477       C  0.12103315  0.20993926  0.33056726     1.10800
C1478       C  0.20682486  0.15295590  0.33774514     1.10800
C1479       C  0.10786129  0.15793507  0.24639893     1.10700
O1480       O  0.31847692  0.13944075  0.20178349    -0.78900
O1481       O  0.26407185  0.17136466  0.14198661    -0.78900
O1482       O  0.33769864  0.18764524  0.14831905    -0.78900
O1483       O  0.24147024  0.08412563  0.14540853    -0.78900
O1484       O  0.30630308  0.21024076  0.11024411    -0.79000
O1485       O  0.26047374  0.11199611  0.18666765    -0.78900
O1486       O  0.23932252  0.13841173  0.10808391    -0.78900
O1487       O  0.36706752  0.14109500  0.18079974    -0.78900
C1488       C  0.34797021  0.14689161  0.20402278     1.10800
C1489       C  0.23875466  0.16301956  0.12695359     1.10700
C1490       C  0.32404872  0.21269943  0.13503988     1.10800
C1491       C  0.23729074  0.09783627  0.17254894     1.10700
O1492       O  0.29384618  0.05453802  0.16381738    -0.78900
O1493       O  0.34683821  0.16403001  0.08893327    -0.79000
O1494       O  0.37056605  0.09621953  0.12909599    -0.78900
O1495       O  0.29372625  0.11134953  0.06883759    -0.78900
O1496       O  0.28302797  0.16253486  0.07566437    -0.78900
O1497       O  0.35258771  0.08141493  0.17757619    -0.78900
O1498       O  0.29602624  0.05902865  0.11020752    -0.78900
O1499       O  0.39021909  0.15992770  0.12070510    -0.78900
Co1500     Co  0.30612927  0.09867059  0.18023422     1.51500
Co1501     Co  0.30500399  0.16550550  0.11844801     1.51700
Co1502     Co  0.35109139  0.14005360  0.13483532     1.51600
Co1503     Co  0.27044400  0.09934062  0.10906445     1.51500
O1504       O  0.30635171  0.12048798  0.13631540    -1.40800
C1505       C  0.29672223  0.04205009  0.13581542     1.10700
C1506       C  0.37741045  0.16928884  0.09414304     1.10800
C1507       C  0.37369257  0.07920183  0.15482478     1.10800
C1508       C  0.28981017  0.13937414  0.05718636     1.10700
O1509       O  0.08704240  0.33647995  0.19243557    -0.78900
O1510       O  0.16472820  0.28465925  0.07636562    -0.78900
O1511       O  0.14814630  0.38822294  0.12974828    -0.78900
O1512       O  0.06393581  0.28594459  0.11980757    -0.78900
O1513       O  0.15853087  0.34805965  0.09492906    -0.79000
O1514       O  0.06452181  0.27851221  0.17332585    -0.78900
O1515       O  0.11203160  0.28892290  0.07375604    -0.78900
O1516       O  0.08994371  0.35963396  0.14421835    -0.78900
C1517       C  0.07771042  0.35857429  0.17249260     1.10800
C1518       C  0.13914119  0.28741254  0.05968057     1.10700
C1519       C  0.15767154  0.37887621  0.10196860     1.10800
C1520       C  0.04984267  0.28521776  0.14697184     1.10700
O1521       O  0.12687450  0.24799565  0.18738478    -0.78900
O1522       O  0.21235344  0.31312835  0.11124493    -0.79000
O1523       O  0.14405620  0.35615650  0.18976285    -0.78900
O1524       O  0.14565513  0.23559710  0.10846101    -0.78900
O1525       O  0.18095052  0.26154846  0.13958467    -0.78900
O1526       O  0.15084043  0.30540555  0.20419407    -0.78900
O1527       O  0.09423777  0.23025861  0.14958971    -0.78900
O1528       O  0.18616644  0.34010781  0.14991791    -0.78900
Co1529     Co  0.10889708  0.29216249  0.18705766     1.51500
Co1530     Co  0.16832633  0.30402693  0.12059294     1.51700
Co1531     Co  0.13640171  0.34593074  0.14239039     1.51600
Co1532     Co  0.10484474  0.26291019  0.11384342     1.51500
O1533       O  0.12515398  0.29860670  0.14159168    -1.40800
C1534       C  0.11007964  0.22553076  0.17570911     1.10700
C1535       C  0.21246332  0.33159755  0.13571738     1.10800
C1536       C  0.15599884  0.33491021  0.20889264     1.10800
C1537       C  0.17146760  0.23575875  0.12574879     1.10700
O1538       O  0.65235908  0.31171199  0.18261391    -0.78900
O1539       O  0.68099764  0.37307301  0.22831933    -0.78900
O1540       O  0.68886082  0.36169779  0.15235707    -0.78900
O1541       O  0.59805811  0.36370797  0.26137682    -0.78900
O1542       O  0.71381888  0.40147275  0.17889257    -0.79000
O1543       O  0.63079237  0.32617570  0.24277999    -0.78900
O1544       O  0.64754980  0.40594427  0.25407188    -0.78900
O1545       O  0.64215461  0.32408742  0.13229766    -0.78900
C1546       C  0.65148636  0.30360766  0.15341470     1.10800
C1547       C  0.67251563  0.38740009  0.25398195     1.10700
C1548       C  0.71493593  0.37510186  0.16320321     1.10800
C1549       C  0.61421546  0.33774161  0.26559529     1.10700
O1550       O  0.56669085  0.33820201  0.21612026    -0.78900
O1551       O  0.66139138  0.41907993  0.14251704    -0.79000
O1552       O  0.59280927  0.37151953  0.13150785    -0.78900
O1553       O  0.61099920  0.43875531  0.20122608    -0.78900
O1554       O  0.66403564  0.43743953  0.20496298    -0.78900
O1555       O  0.58690035  0.32407419  0.15708678    -0.78900
O1556       O  0.56288342  0.39145331  0.20811392    -0.78900
O1557       O  0.65276347  0.38534439  0.10157500    -0.78900
Co1558     Co  0.61093007  0.32703587  0.19942542     1.51500
Co1559     Co  0.66932835  0.39289823  0.18629159     1.51700
Co1560     Co  0.63931628  0.37147182  0.14428514     1.51600
Co1561     Co  0.60577774  0.39927795  0.22821910     1.51500
O1562       O  0.62586944  0.37247291  0.19158168    -1.40800
C1563       C  0.54985694  0.36382594  0.21216155     1.10700
C1564       C  0.66214551  0.41302764  0.11160227     1.10800
C1565       C  0.57813262  0.34447106  0.13537448     1.10800
C1566       C  0.63785709  0.45337807  0.20175696     1.10700
O1567       O  0.58912696  0.15209967  0.32245257    -0.78900
O1568       O  0.66687527  0.22491834  0.43040049    -0.78900
O1569       O  0.64796859  0.12163728  0.40232308    -0.78900
O1570       O  0.56468333  0.21239143  0.39612541    -0.78900
O1571       O  0.67062534  0.16256305  0.42487853    -0.79000
O1572       O  0.56168475  0.20961271  0.34232088    -0.78900
O1573       O  0.61550177  0.21544787  0.43687411    -0.78900
O1574       O  0.62333685  0.12005446  0.34880077    -0.78900
C1575       C  0.59942007  0.12382888  0.33041068     1.10800
C1576       C  0.64333213  0.21886798  0.44846066     1.10700
C1577       C  0.66396263  0.13236929  0.42535215     1.10800
C1578       C  0.54887545  0.20792426  0.37028863     1.10700
O1579       O  0.62105379  0.24372856  0.32140673    -0.78900
O1580       O  0.71468687  0.20023462  0.39798402    -0.79000
O1581       O  0.66893308  0.14669797  0.32612580    -0.78900
O1582       O  0.64524431  0.26647926  0.39539995    -0.78900
O1583       O  0.67621646  0.23843432  0.36256867    -0.78900
O1584       O  0.64699667  0.18975800  0.30308880    -0.78900
O1585       O  0.58997834  0.26437194  0.35833191    -0.78900
O1586       O  0.69946427  0.15682168  0.36961524    -0.78900
Co1587     Co  0.60633746  0.19869458  0.32626022     1.51500
Co1588     Co  0.67061591  0.19986618  0.38998382     1.51700
Co1589     Co  0.64935493  0.15349452  0.36795955     1.51600
Co1590     Co  0.60508892  0.23670118  0.39584465     1.51500
O1591       O  0.62541904  0.19655004  0.37289918    -1.40800
C1592       C  0.60596951  0.26750897  0.33254452     1.10700
C1593       C  0.72137317  0.17576514  0.38134042     1.10800
C1594       C  0.66671003  0.16648368  0.30319727     1.10800
C1595       C  0.67063661  0.26439592  0.37768004     1.10700
O1596       O  0.80586571  0.40442772  0.28014242    -0.78900
O1597       O  0.77684728  0.31236290  0.37646936    -0.78900
O1598       O  0.88198102  0.32603622  0.33088684    -0.78900
O1599       O  0.73894702  0.39599579  0.35262311    -0.78900
O1600       O  0.83061877  0.31196049  0.33755116    -0.79000
O1601       O  0.76681067  0.36837446  0.31691607    -0.78900
O1602       O  0.74884300  0.35099806  0.40104558    -0.78900
O1603       O  0.83986971  0.36529040  0.29846640    -0.78900
C1604       C  0.82587366  0.38175982  0.27520210     1.10800
C1605       C  0.75032007  0.32352834  0.38722662     1.10700
C1606       C  0.86001967  0.30442702  0.32975933     1.10800
C1607       C  0.74026991  0.38056533  0.32606532     1.10700
O1608       O  0.78116703  0.43510936  0.33063445    -0.78900
O1609       O  0.84339589  0.29601324  0.39974594    -0.79000
O1610       O  0.88237150  0.39223426  0.34651028    -0.78900
O1611       O  0.79517882  0.39432639  0.43095673    -0.78900
O1612       O  0.81190345  0.34349402  0.42847664    -0.78900
O1613       O  0.84530864  0.42475742  0.32605714    -0.78900
O1614       O  0.78584669  0.43800490  0.38358539    -0.78900
O1615       O  0.87092683  0.34182031  0.39244706    -0.78900
Co1616     Co  0.80619907  0.39487129  0.32358851     1.51500
Co1617     Co  0.82023637  0.33244018  0.38181995     1.51700
Co1618     Co  0.85121869  0.35612833  0.34788030     1.51600
Co1619     Co  0.77005814  0.39380144  0.39077750     1.51500
O1620       O  0.81075920  0.37807584  0.36648929    -1.40800
C1621       C  0.78427387  0.45139169  0.35616932     1.10700
C1622       C  0.86912243  0.31274752  0.40482474     1.10800
C1623       C  0.87486767  0.41855325  0.33260573     1.10800
C1624       C  0.80651197  0.36923224  0.44416294     1.10700
O1625       O  0.64751330  0.09160487  0.16844545    -0.78900
O1626       O  0.71692063  0.16027426  0.06279040    -0.78900
O1627       O  0.63256746  0.13635836  0.10367001    -0.78900
O1628       O  0.70249531  0.06457916  0.11525411    -0.78900
O1629       O  0.65902492  0.18058677  0.08783364    -0.79000
O1630       O  0.71002665  0.06773313  0.16738853    -0.78900
O1631       O  0.70649160  0.10781494  0.06625110    -0.78900
O1632       O  0.61182715  0.13187706  0.16763901    -0.78900
C1633       C  0.61805962  0.10223637  0.17335949     1.10800
C1634       C  0.71305742  0.13260202  0.04981076     1.10700
C1635       C  0.63409909  0.16208484  0.08627930     1.10800
C1636       C  0.70436561  0.05111398  0.14256064     1.10700
O1637       O  0.73944453  0.12922156  0.17931446    -0.78900
O1638       O  0.69375834  0.19775551  0.14796536    -0.79000
O1639       O  0.67063048  0.15000334  0.19391916    -0.78900
O1640       O  0.76461110  0.13587293  0.09310602    -0.78900
O1641       O  0.74874754  0.17615538  0.12354537    -0.78900
O1642       O  0.69101475  0.10448595  0.21586145    -0.78900
O1643       O  0.76037134  0.09435940  0.14495662    -0.78900
O1644       O  0.64274026  0.18678871  0.14673466    -0.78900
Co1645     Co  0.69451503  0.11313592  0.17148752     1.51500
Co1646     Co  0.70443100  0.17664114  0.10709663     1.51700
Co1647     Co  0.65297213  0.13909230  0.14744055     1.51600
Co1648     Co  0.73080501  0.10198697  0.10613018     1.51500
O1649       O  0.69727065  0.13262781  0.12712825    -1.40800
C1650       C  0.76318761  0.11208498  0.16998715     1.10700
C1651       C  0.66507624  0.20734121  0.14941052     1.33600
C1652       C  0.68238947  0.13383401  0.21821570     1.10800
C1653       C  0.76967171  0.16355676  0.10564644     1.10700
O1654       O  0.92306169  0.15105502  0.36051575    -0.78900
O1655       O  0.83400887  0.06285371  0.29167292    -0.78900
O1656       O  0.87050070  0.09202656  0.37278825    -0.78900
O1657       O  0.93716877  0.09825491  0.30029448    -0.78900
O1658       O  0.82155613  0.08709840  0.35052935    -0.79000
O1659       O  0.94179204  0.15056437  0.29607547    -0.78900
O1660       O  0.88723725  0.05773439  0.29757361    -0.78900
O1661       O  0.88453815  0.15269616  0.39772014    -0.78900
C1662       C  0.91400028  0.15611332  0.39029347     1.10800
C1663       C  0.85919827  0.04596784  0.29779700     1.10700
C1664       C  0.84229556  0.07897907  0.37237158     1.10800
C1665       C  0.95454830  0.12314206  0.30055119     1.10700
O1666       O  0.88013280  0.17460783  0.27399897    -0.78900
O1667       O  0.81188633  0.15178055  0.32028234    -0.79000
O1668       O  0.86872969  0.18781823  0.34342319    -0.78900
O1669       O  0.85895178  0.09173609  0.24249248    -0.78900
O1670       O  0.82420688  0.12679764  0.26211283    -0.78900
O1671       O  0.91545018  0.20331414  0.32152749    -0.78900
O1672       O  0.90693531  0.13709327  0.24699225    -0.78900
O1673       O  0.82898148  0.14394329  0.36950939    -0.78900
Co1674     Co  0.89910897  0.16100699  0.31577471     1.51500
Co1675     Co  0.82533178  0.10853633  0.30610282     1.51700
Co1676     Co  0.87370376  0.13763626  0.35607148     1.51600
Co1677     Co  0.89676981  0.09734240  0.27437972     1.51500
O1678       O  0.87250169  0.12074624  0.31072801    -1.40800
C1679       C  0.89202378  0.16426004  0.24789336     1.10700
C1680       C  0.80848996  0.15514958  0.35018529     1.10800
C1681       C  0.88777442  0.21035208  0.33250181     1.10800
C1682       C  0.83404077  0.10986318  0.23890298     1.10700
O1683       O  0.85086005  0.32094190  0.18733565    -0.78900
O1684       O  0.82461349  0.26215394  0.08642404    -0.78900
O1685       O  0.82086730  0.35702016  0.13134391    -0.78900
O1686       O  0.90690958  0.23327836  0.15339645    -0.78900
O1687       O  0.80799957  0.30611092  0.13371129    -0.79000
O1688       O  0.87177100  0.25840721  0.18423909    -0.78900
O1689       O  0.86358841  0.22940496  0.10512597    -0.78900
O1690       O  0.85854040  0.36791095  0.16345690    -0.78900
C1691       C  0.85000247  0.35139131  0.18792390     1.10800
C1692       C  0.83543679  0.23415044  0.09399609     1.10700
C1693       C  0.80063947  0.33531722  0.13905262     1.10800
C1694       C  0.88800517  0.23334548  0.17750016     1.10700
O1695       O  0.93619121  0.28279978  0.16922651    -0.78900
O1696       O  0.80886002  0.32827140  0.07029657    -0.79000
O1697       O  0.90828130  0.37226615  0.12627283    -0.78900
O1698       O  0.90277608  0.26835770  0.06516928    -0.78900
O1699       O  0.86929549  0.30974921  0.06062816    -0.78900
O1700       O  0.91597188  0.34390052  0.17170797    -0.78900
O1701       O  0.94162350  0.28178582  0.11611286    -0.78900
O1702       O  0.84692605  0.36583369  0.07805494    -0.78900
Co1703     Co  0.89171553  0.30104819  0.17512936     1.51500
Co1704     Co  0.84019283  0.30652426  0.09852692     1.51700
Co1705     Co  0.86745674  0.34708832  0.12059533     1.51600
Co1706     Co  0.90196397  0.25692961  0.11084518     1.51500
O1707       O  0.87685188  0.29729488  0.12776273    -1.40800
C1708       C  0.95335681  0.28543550  0.14399024     1.10700
C1709       C  0.81978459  0.35675182  0.06444341     1.10800
C1710       C  0.92290544  0.36803185  0.15336822     1.10800
C1711       C  0.89004503  0.29073008  0.04911805     1.10700
O1712       O  0.70477388  0.04453785  0.54106360    -0.78900
O1713       O  0.71087175  0.97040206  0.42564795    -0.78900
O1714       O  0.73332868  0.06486058  0.46317016    -0.78900
O1715       O  0.73187716  0.93562442  0.53384642    -0.78900
O1716       O  0.69756797  0.02455599  0.46367893    -0.79000
O1717       O  0.69892861  0.97608361  0.54467948    -0.78900
O1718       O  0.71313980  0.94388890  0.47219929    -0.78900
O1719       O  0.74537826  0.07571823  0.52601330    -0.78900
C1720       C  0.71656650  0.07260944  0.53640558     1.10800
C1721       C  0.70170857  0.94654072  0.44278374     1.10700
C1722       C  0.70424130  0.05451201  0.45930028     1.10800
C1723       C  0.70487758  0.94575650  0.54464306     1.10700
O1724       O  0.76588892  0.97309034  0.56911687    -0.78900
O1725       O  0.75563469  0.02008545  0.42702964    -0.79000
O1726       O  0.80504970  0.03961111  0.52461471    -0.78900
O1727       O  0.77195474  0.91752687  0.48340961    -0.78900
O1728       O  0.77223811  0.96015759  0.44970601    -0.78900
O1729       O  0.77163067  0.03782777  0.56659994    -0.78900
O1730       O  0.79601561  0.96216837  0.52642853    -0.78900
O1731       O  0.79719979  0.03129267  0.45758188    -0.78900
Co1732     Co  0.73509624  0.00777726  0.55189068     1.51500
Co1733     Co  0.73305481  0.99178360  0.46019288     1.51700
Co1734     Co  0.76969981  0.04938123  0.49324681     1.51600
Co1735     Co  0.75636487  0.95772388  0.49821702     1.51500
O1736       O  0.74861378  0.00568086  0.50401603    -1.40800
C1737       C  0.79254119  0.96275550  0.55716353     1.10700
C1738       C  0.78461456  0.03021638  0.42959260     1.10800
C1739       C  0.79999281  0.04260230  0.55484721     1.10800
C1740       C  0.78191065  0.93108239  0.45755846     1.10700
C1741       C  0.80134201  0.04382101  0.40024497    -0.15200
C1742       C  0.83129513  0.05766356  0.39994906    -0.30400
H1743       H  0.78668194  0.04517566  0.37831015     0.13800
H1744       H  0.84645162  0.05624281  0.42152068     0.14400
C1745       C  0.88807224  0.20599988  0.19934368    -0.12000
C1746       C  0.88998634  0.18499592  0.21981254    -0.13600
C1747       C  0.79249482  0.11060653  0.18968388    -0.12000
C1748       C  0.81418240  0.10942585  0.20976491    -0.13600
C1749       C  0.79641940  0.18373487  0.09629351    -0.12000
C1750       C  0.81460415  0.20629733  0.09215513    -0.13600
C1751       C  0.83309340  0.37444732  0.24298746    -0.12000
C1752       C  0.83949361  0.36652602  0.21621740    -0.13600
C1753       C  0.86866364  0.27106952  0.32618924    -0.12000
C1754       C  0.87663189  0.24311321  0.32930872    -0.13600
C1755       C  0.75344066  0.17077669  0.37307194    -0.12000
C1756       C  0.77954365  0.16660835  0.36247878    -0.13600
C1757       C  0.68663843  0.14951382  0.24802158    -0.12000
C1758       C  0.68340303  0.16002868  0.27449710    -0.13600
C1759       C  0.67987197  0.10974059  0.44912834    -0.15200
C1760       C  0.67886898  0.07694167  0.44572908    -0.30400
H1761       H  0.69745728  0.12013447  0.46578236     0.13800
H1762       H  0.66085938  0.06631821  0.42968484     0.14400
C1763       C  0.72080718  0.30452161  0.38384462    -0.12000
C1764       C  0.69653128  0.28814213  0.38016160    -0.13600
C1765       C  0.74507717  0.35871030  0.15829359    -0.12000
C1766       C  0.77001144  0.34512856  0.15166331    -0.13600
C1767       C  0.65872010  0.24125036  0.14770506    -0.12000
C1768       C  0.65594544  0.27019800  0.14645389    -0.13600
C1769       C  0.60712328  0.29761573  0.31479823    -0.12000
C1770       C  0.61039664  0.31871845  0.29464881    -0.13600
C1771       C  0.71291411  0.38104976  0.30394002    -0.12000
C1772       C  0.69280431  0.38386471  0.28252429    -0.13600
C1773       C  0.01595370  0.28924089  0.14766480    -0.12000
C1774       C  0.98710774  0.28933773  0.14702112    -0.13600
C1775       C  0.21103648  0.18468122  0.12791728    -0.12000
C1776       C  0.19156246  0.20686886  0.12763152    -0.13600
C1777       C  0.98873777  0.12030583  0.30530238    -0.12000
C1778       C  0.01778927  0.11954124  0.30752213    -0.13600
C1779       C  0.10621746  0.17609764  0.21631683    -0.12000
C1780       C  0.10688458  0.19612444  0.19467917    -0.13600
C1781       C  0.18350835  0.09775212  0.20697085    -0.12000
C1782       C  0.20622210  0.09645859  0.18850389    -0.13600
C1783       C  0.48602868  0.20146215  0.37403587    -0.12000
C1784       C  0.51491648  0.20326458  0.37246934    -0.13600
C1785       C  0.24099952  0.15260733  0.34150440    -0.12000
C1786       C  0.26973776  0.15076569  0.34520116    -0.13600
C1787       C  0.35962784  0.16049023  0.23363868    -0.12000
C1788       C  0.36772023  0.16888567  0.26034239    -0.13600
C1789       C  0.48703745  0.35833413  0.22140613    -0.12000
C1790       C  0.51549872  0.36125251  0.21578890    -0.13600
C1791       C  0.32894786  0.24353087  0.14874973    -0.12000
C1792       C  0.33651582  0.26915182  0.15954143    -0.13600
C1793       C  0.24146193  0.34415983  0.14879454    -0.12000
C1794       C  0.26327791  0.35752009  0.16228960    -0.13600
C1795       C  0.38860881  0.31192664  0.31461202    -0.12000
C1796       C  0.38802918  0.28979212  0.33414570    -0.13600
C1797       C  0.17366777  0.34313490  0.23731562    -0.12000
C1798       C  0.18320201  0.34560235  0.26467946    -0.13600
C1799       C  0.13644945  0.27041926  0.33807919    -0.12000
C1800       C  0.12861197  0.24322259  0.33246867    -0.13600
C1801       C  0.29244803  0.30145529  0.41195292    -0.12000
C1802       C  0.31652418  0.28502792  0.41501894    -0.13600
C1803       C  0.28263602  0.39818915  0.31738810    -0.12000
C1804       C  0.30342825  0.39277673  0.29701208    -0.13600
C1805       C  0.86053357  0.98352310  0.30322024    -0.12000
C1806       C  0.85704652  0.01219884  0.30236770    -0.13600
C1807       C  0.81629197  0.92559632  0.40858170    -0.15200
C1808       C  0.80475027  0.91338573  0.43664753    -0.30400
H1809       H  0.81004812  0.95014754  0.40103036     0.13800
H1810       H  0.81049211  0.88854335  0.44364907     0.14400
C1811       C  0.89336109  0.80199721  0.18493276    -0.12000
C1812       C  0.89615413  0.82220930  0.20581347    -0.13600
C1813       C  0.70385358  0.98778263  0.14580509    -0.12000
C1814       C  0.70253701  0.01679888  0.14507076    -0.13600
C1815       C  0.78749677  0.81311816  0.11395920    -0.12000
C1816       C  0.80934692  0.79331313  0.11311932    -0.13600
C1817       C  0.81683426  0.89002528  0.21217259    -0.12000
C1818       C  0.79628569  0.89107655  0.19081973    -0.13600
C1819       C  0.63773443  0.51747420  0.20003805    -0.12000
C1820       C  0.63842340  0.48819386  0.20011167    -0.13600
C1821       C  0.65879996  0.72860330  0.13313694    -0.12000
C1822       C  0.66431643  0.75606747  0.12639733    -0.13600
C1823       C  0.73832365  0.64460824  0.14402829    -0.12000
C1824       C  0.75951325  0.65876494  0.12983960    -0.13600
C1825       C  0.75332725  0.86413212  0.33181656    -0.12000
C1826       C  0.72572363  0.85614848  0.33596786    -0.13600
C1827       C  0.62945342  0.83088428  0.25544325    -0.12000
C1828       C  0.64152064  0.83525933  0.22955360    -0.13600
C1829       C  0.67829183  0.92230577  0.42817534    -0.15200
C1830       C  0.67116307  0.89251420  0.44060561    -0.30400
H1831       H  0.66968240  0.92775023  0.40378772     0.13800
H1832       H  0.68198662  0.88562972  0.46370558     0.14400
C1833       C  0.60835037  0.71032533  0.30899125    -0.12000
C1834       C  0.60710977  0.68962337  0.28804827    -0.13600
C1835       C  0.78894569  0.51396451  0.35319463    -0.12000
C1836       C  0.78661232  0.48527295  0.35388185    -0.13600
C1837       C  0.84351833  0.64989785  0.22445980    -0.12000
C1838       C  0.84178773  0.64980438  0.25340125    -0.13600
C1839       C  0.83022934  0.77397061  0.35178399    -0.12000
C1840       C  0.82408384  0.74725947  0.35976341    -0.13600
C1841       C  0.70452309  0.61243143  0.30650084    -0.12000
C1842       C  0.68600139  0.61518050  0.28355106    -0.13600
C1843       C  0.70994813  0.68521609  0.38359875    -0.12000
C1844       C  0.68731443  0.70394125  0.38536511    -0.13600
C1845       C  0.29521591  0.97852486  0.13184365    -0.12000
C1846       C  0.29745777  0.00754551  0.13316292    -0.13600
C1847       C  0.15230117  0.01028253  0.30262594    -0.12000
C1848       C  0.15096094  0.98166388  0.30010655    -0.13600
C1849       C  0.01988332  0.86521937  0.29721979    -0.12000
C1850       C  0.99079948  0.86493200  0.29911275    -0.13600
C1851       C  0.20832232  0.88176205  0.18289416    -0.12000
C1852       C  0.18823636  0.88367344  0.20387495    -0.13600
C1853       C  0.98481249  0.70627007  0.14366360    -0.12000
C1854       C  0.01311518  0.70257603  0.14749221    -0.13600
C1855       C  0.17958196  0.79055021  0.11082052    -0.12000
C1856       C  0.20048180  0.81084315  0.10915767    -0.13600
C1857       C  0.11368511  0.81251557  0.20995679    -0.12000
C1858       C  0.11076986  0.79237320  0.18907264    -0.13600
C1859       C  0.48113000  0.78772545  0.36667487    -0.12000
C1860       C  0.51043253  0.78869898  0.36771469    -0.13600
C1861       C  0.35456136  0.84450295  0.26296343    -0.12000
C1862       C  0.34193894  0.85716082  0.23985139    -0.13600
C1863       C  0.23424475  0.84612574  0.35622369    -0.12000
C1864       C  0.26315238  0.84578846  0.35734252    -0.13600
C1865       C  0.36349831  0.50791513  0.20484024    -0.12000
C1866       C  0.36446933  0.47930710  0.20963037    -0.13600
C1867       C  0.48169892  0.63514904  0.20695092    -0.12000
C1868       C  0.51043349  0.63776304  0.20405226    -0.13600
C1869       C  0.35725925  0.76976591  0.16346618    -0.12000
C1870       C  0.36658417  0.74328662  0.17033260    -0.13600
C1871       C  0.24606680  0.67160373  0.12848806    -0.12000
C1872       C  0.27217447  0.66459533  0.13948677    -0.13600
C1873       C  0.37918102  0.68426669  0.28889441    -0.12000
C1874       C  0.37941569  0.70654016  0.30825431    -0.13600
C1875       C  0.19259770  0.49905918  0.36949228    -0.12000
C1876       C  0.18784401  0.47170701  0.37826477    -0.13600
C1877       C  0.15230947  0.72858302  0.35152094    -0.12000
C1878       C  0.14019870  0.75298861  0.34081902    -0.13600
C1879       C  0.15297063  0.64244519  0.23016957    -0.12000
C1880       C  0.15142671  0.63798887  0.25886716    -0.13600
C1881       C  0.29521822  0.58982967  0.31650068    -0.12000
C1882       C  0.31365032  0.59344517  0.29412226    -0.13600
C1883       C  0.30850045  0.69377878  0.38416629    -0.12000
C1884       C  0.28691786  0.67374563  0.38185315    -0.13600
C1885       C  0.30711007  0.84983324  0.98528406    -0.12000
C1886       C  0.30097120  0.85037847  0.01347354    -0.13600
C1887       C  0.11358508  0.72267518  0.98777136    -0.12000
C1888       C  0.11799769  0.71937795  0.01646775    -0.13600
C1889       C  0.20679932  0.77405799  0.90892930    -0.12000
C1890       C  0.22569780  0.79610678  0.90477461    -0.13600
C1891       C  0.09556997  0.79435481  0.77450975    -0.12000
C1892       C  0.09194852  0.77153392  0.79319772    -0.13600
C1893       C  0.18763546  0.87752685  0.80064131    -0.12000
C1894       C  0.20931534  0.87932370  0.82093214    -0.13600
C1895       C  0.20131516  0.62895494  0.50831622    -0.12000
C1896       C  0.20132891  0.62858585  0.47923006    -0.13600
C1897       C  0.14406492  0.65184059  0.75948604    -0.12000
C1898       C  0.14914264  0.63929104  0.73409566    -0.13600
C1899       C  0.12464293  0.74912223  0.65967688    -0.12000
C1900       C  0.13198679  0.72174284  0.65424436    -0.13600
C1901       C  0.38118565  0.75081207  0.83518952    -0.12000
C1902       C  0.37272317  0.77851171  0.83331880    -0.13600
C1903       C  0.26159750  0.67401299  0.83876895    -0.12000
C1904       C  0.23566130  0.68246633  0.84865384    -0.13600
C1905       C  0.30167539  0.60943810  0.71086631    -0.12000
C1906       C  0.27954907  0.60987572  0.69046683    -0.13600
C1907       C  0.36069332  0.77422196  0.51717316    -0.12000
C1908       C  0.35861055  0.77412232  0.48822174    -0.13600
C1909       C  0.26396520  0.84808802  0.65333962    -0.12000
C1910       C  0.23565936  0.84482578  0.65676562    -0.13600
C1911       C  0.33330481  0.85800326  0.72619323    -0.12000
C1912       C  0.32705141  0.87068704  0.75168204    -0.13600
C1913       C  0.30871700  0.69610107  0.61556154    -0.12000
C1914       C  0.28808474  0.67593358  0.61162749    -0.13600
C1915       C  0.39896253  0.72525904  0.70939782    -0.12000
C1916       C  0.39430622  0.70380142  0.72939392    -0.13600
C1917       C  0.70462648  0.86984503  0.01611200    -0.12000
C1918       C  0.70459789  0.86740860  0.98700982    -0.13600
C1919       C  0.87429797  0.72998523  0.01271597    -0.12000
C1920       C  0.88119562  0.73428227  0.98458484    -0.13600
C1921       C  0.01521506  0.71643095  0.89284961    -0.12000
C1922       C  0.98568270  0.71849033  0.89219963    -0.13600
C1923       C  0.79296181  0.78212761  0.90035443    -0.12000
C1924       C  0.77505650  0.80480780  0.89463407    -0.13600
C1925       C  0.98832532  0.87467731  0.69216320    -0.12000
C1926       C  0.01735365  0.87398804  0.69352709    -0.13600
C1927       C  0.81675688  0.95122204  0.61219326    -0.15200
C1928       C  0.81827552  0.94851355  0.57934013    -0.30400
H1929       H  0.79729200  0.96594267  0.62218559     0.13800
H1930       H  0.83682262  0.93310582  0.56870958     0.14400
C1931       C  0.90682216  0.80204980  0.76994271    -0.12000
C1932       C  0.91063375  0.77977496  0.78925591    -0.13600
C1933       C  0.82259360  0.89319514  0.79798845    -0.12000
C1934       C  0.80199618  0.89747887  0.81875852    -0.13600
C1935       C  0.51531136  0.62230874  0.80741151    -0.12000
C1936       C  0.48629923  0.62522750  0.80438548    -0.13600
C1937       C  0.73477151  0.66866276  0.84700947    -0.12000
C1938       C  0.76095816  0.67968464  0.85455090    -0.13600
C1939       C  0.66273596  0.73497630  0.83938915    -0.12000
C1940       C  0.66705702  0.76069787  0.85206275    -0.13600
C1941       C  0.79694887  0.63304201  0.48080432    -0.12000
C1942       C  0.79881986  0.63511808  0.50984844    -0.13600
C1943       C  0.84662725  0.66537239  0.72764299    -0.12000
C1944       C  0.85186850  0.66993632  0.75570307    -0.13600
C1945       C  0.86826639  0.76473528  0.64119160    -0.12000
C1946       C  0.85550067  0.74069749  0.63091926    -0.13600
C1947       C  0.67902308  0.61842108  0.69194527    -0.12000
C1948       C  0.69766828  0.61726101  0.66980771    -0.13600
C1949       C  0.50928786  0.80723302  0.61784032    -0.12000
C1950       C  0.48027418  0.80570945  0.61627988    -0.13600
C1951       C  0.63844083  0.78221128  0.51370909    -0.12000
C1952       C  0.63997054  0.78457473  0.48492522    -0.13600
C1953       C  0.67799938  0.83546621  0.73301585    -0.12000
C1954       C  0.68577999  0.84633918  0.75883080    -0.13600
C1955       C  0.75165305  0.82742640  0.63568315    -0.12000
C1956       C  0.77780377  0.83363367  0.64502154    -0.13600
C1957       C  0.68316738  0.88998322  0.55456741    -0.15200
C1958       C  0.68170040  0.92245602  0.55980234    -0.30400
H1959       H  0.69950290  0.88078249  0.53609045     0.13800
H1960       H  0.66504074  0.93197061  0.57782229     0.14400
C1961       C  0.58209902  0.69945653  0.71766809    -0.12000
C1962       C  0.58367063  0.71993000  0.69658905    -0.13600
C1963       C  0.71274108  0.69064961  0.61133293    -0.12000
C1964       C  0.68868482  0.70757231  0.61569582    -0.13600
C1965       C  0.29609968  0.14821315  0.99451541    -0.12000
C1966       C  0.29350193  0.14515994  0.02332713    -0.13600
C1967       C  0.29556933  0.01331626  0.88119278    -0.12000
C1968       C  0.29315517  0.98415747  0.87738939    -0.13600
C1969       C  0.15561545  0.00769372  0.71435030    -0.12000
C1970       C  0.15421431  0.97849089  0.71504947    -0.13600
C1971       C  0.21298414  0.10478005  0.82787057    -0.12000
C1972       C  0.19109169  0.10147352  0.80879977    -0.13600
C1973       C  0.14037269  0.28684095  0.99548525    -0.12000
C1974       C  0.14077792  0.28769912  0.02478998    -0.13600
C1975       C  0.18611705  0.20857652  0.89290194    -0.12000
C1976       C  0.20759630  0.18825270  0.89539194    -0.13600
C1977       C  0.10387317  0.19640692  0.82683495    -0.12000
C1978       C  0.10868103  0.17656045  0.80518421    -0.13600
C1979       C  0.37518500  0.50774288  0.78787919    -0.12000
C1980       C  0.38101462  0.47899763  0.78936132    -0.13600
C1981       C  0.35824907  0.22817503  0.83252812    -0.12000
C1982       C  0.36543561  0.25569550  0.82588972    -0.13600
C1983       C  0.23181572  0.34496261  0.86123638    -0.12000
C1984       C  0.25924710  0.34890545  0.85255234    -0.13600
C1985       C  0.20499588  0.48053869  0.64126537    -0.12000
C1986       C  0.20184839  0.50935548  0.63818320    -0.13600
C1987       C  0.20558721  0.35443952  0.52453139    -0.12000
C1988       C  0.20232626  0.35492615  0.49557055    -0.13600
C1989       C  0.16536869  0.36058212  0.75554780    -0.12000
C1990       C  0.15522150  0.34893809  0.78015666    -0.13600
C1991       C  0.14503577  0.27230281  0.68130661    -0.12000
C1992       C  0.13649556  0.24576227  0.68915433    -0.13600
C1993       C  0.29857531  0.39902761  0.73163575    -0.12000
C1994       C  0.28295594  0.39478584  0.70714870    -0.13600
C1995       C  0.37026663  0.18611070  0.49990305    -0.12000
C1996       C  0.37607141  0.18513385  0.52857068    -0.13600
C1997       C  0.34897431  0.12680228  0.73419927    -0.12000
C1998       C  0.34023172  0.12024444  0.76104748    -0.13600
C1999       C  0.26833385  0.18090532  0.66986724    -0.12000
C2000       C  0.24019204  0.17425793  0.67252424    -0.13600
C2001       C  0.31374932  0.28054664  0.60528864    -0.12000
C2002       C  0.29477348  0.30257778  0.61037831    -0.13600
C2003       C  0.42066877  0.27730477  0.71022610    -0.12000
C2004       C  0.42264469  0.29490548  0.73326192    -0.13600
C2005       C  0.89440641  0.29235108  0.98677464    -0.12000
C2006       C  0.89687789  0.29254140  0.01560881    -0.13600
C2007       C  0.97361769  0.28359186  0.89245156    -0.12000
C2008       C  0.00256958  0.28132987  0.88814472    -0.13600
C2009       C  0.72396020  0.12439532  0.98817916    -0.12000
C2010       C  0.72019731  0.12822404  0.01659423    -0.13600
C2011       C  0.72862083  0.00189498  0.88643958    -0.12000
C2012       C  0.72876010  0.03123289  0.88887957    -0.13600
C2013       C  0.77572400  0.24806049  0.92112173    -0.12000
C2014       C  0.75392118  0.22839358  0.92015038    -0.13600
C2015       C  0.99460448  0.12504134  0.71101623    -0.12000
C2016       C  0.02377031  0.12323499  0.71175245    -0.13600
C2017       C  0.86040805  0.98948645  0.71681357    -0.12000
C2018       C  0.86096840  0.01840710  0.71941180    -0.13600
C2019       C  0.82853687  0.05194457  0.60808982    -0.15200
C2020       C  0.82639291  0.05637446  0.57556732    -0.30400
H2021       H  0.81282898  0.03418858  0.61957549     0.13800
H2022       H  0.84265386  0.07351003  0.56390999     0.14400
C2023       C  0.77871879  0.11981174  0.79831581    -0.12000
C2024       C  0.80290320  0.12287398  0.78120617    -0.13600
C2025       C  0.90045124  0.20168381  0.78537399    -0.12000
C2026       C  0.89869952  0.22371769  0.80495265    -0.13600
C2027       C  0.49409267  0.20116919  0.63126427    -0.12000
C2028       C  0.52248289  0.20501690  0.62729496    -0.13600
C2029       C  0.65026520  0.20986670  0.50974639    -0.12000
C2030       C  0.64857583  0.21365445  0.48141893    -0.13600
C2031       C  0.72712167  0.13808703  0.65872401    -0.12000
C2032       C  0.75324099  0.12644206  0.66243090    -0.13600
C2033       C  0.64869139  0.16176565  0.76436757    -0.12000
C2034       C  0.63964543  0.17106332  0.73861627    -0.13600
C2035       C  0.66907349  0.10537947  0.55800171    -0.15200
C2036       C  0.69947686  0.10291251  0.54600583    -0.30400
H2037       H  0.65320538  0.08438680  0.55818295     0.13800
H2038       H  0.71446018  0.12458645  0.54546222     0.14400
C2039       C  0.51520350  0.37666338  0.77947298    -0.12000
C2040       C  0.48706198  0.38396707  0.78112119    -0.13600
C2041       C  0.64035428  0.51686434  0.77993921    -0.12000
C2042       C  0.64209600  0.48777879  0.77927422    -0.13600
C2043       C  0.72843315  0.33284199  0.84336202    -0.12000
C2044       C  0.75549115  0.32747139  0.85312328    -0.13600
C2045       C  0.64230500  0.23653375  0.85292103    -0.12000
C2046       C  0.62976716  0.25817504  0.83772272    -0.13600
C2047       C  0.61725500  0.29420494  0.67843188    -0.12000
C2048       C  0.61460878  0.31417166  0.69956121    -0.13600
C2049       C  0.79401409  0.48728014  0.63493774    -0.12000
C2050       C  0.79069489  0.51615197  0.63561498    -0.13600
C2051       C  0.81088712  0.36891576  0.50763182    -0.12000
C2052       C  0.81098020  0.36912295  0.47849773    -0.13600
C2053       C  0.84586528  0.33386916  0.72818458    -0.12000
C2054       C  0.85033520  0.33241762  0.75671129    -0.13600
C2055       C  0.82905298  0.22853971  0.64768677    -0.12000
C2056       C  0.82482924  0.25380101  0.63422149    -0.13600
C2057       C  0.70266603  0.39295314  0.66707391    -0.12000
C2058       C  0.68205670  0.39220171  0.68778331    -0.13600
C2059       C  0.71587764  0.31688982  0.59881150    -0.12000
C2060       C  0.69491398  0.29650713  0.60054372    -0.13600
C2061       C  0.58341439  0.69817642  0.92635503    -0.15200
C2062       C  0.56908272  0.69645447  0.89687468    -0.30400
H2063       H  0.60822320  0.68989029  0.93011383     0.13800
H2064       H  0.54564691  0.70804292  0.89276387     0.14400
C2065       C  0.57165635  0.81591058  0.91197714    -0.15200
C2066       C  0.59450588  0.83713707  0.92273322    -0.30400
H2067       H  0.57107782  0.80963482  0.88640913     0.13800
H2068       H  0.59659263  0.84150732  0.94862520     0.14400
C2069       C  0.42125852  0.68992600  0.93404123    -0.15200
C2070       C  0.43175230  0.66764777  0.91198653    -0.30400
H2071       H  0.39565011  0.69632924  0.93456045     0.13800
H2072       H  0.45755648  0.66257099  0.90987927     0.14400
C2073       C  0.43141178  0.81337624  0.91996311    -0.15200
C2074       C  0.41183346  0.83818370  0.92965569    -0.30400
H2075       H  0.42639460  0.80267675  0.89640097     0.13800
H2076       H  0.41626765  0.85037136  0.95253000     0.14400
C2077       C  0.43189954  0.69180232  0.07419769    -0.15200
C2078       C  0.43761954  0.68004994  0.10410892    -0.30400
H2079       H  0.41011096  0.68474619  0.06110450     0.13800
H2080       H  0.45975321  0.68674876  0.11683519     0.14400
C2081       C  0.41493742  0.81965380  0.05703893    -0.15200
C2082       C  0.38434369  0.82839379  0.04899974    -0.30400
H2083       H  0.42486317  0.82689154  0.08036536     0.13800
H2084       H  0.37414591  0.81974707  0.02629559     0.14400
C2085       C  0.55663598  0.67038841  0.09383454    -0.15200
C2086       C  0.56894590  0.69394955  0.07389538    -0.30400
H2087       H  0.53256946  0.66070432  0.08934847     0.13800
H2088       H  0.59340016  0.70228600  0.07920370     0.14400
C2089       C  0.56291941  0.81520479  0.08012029    -0.15200
C2090       C  0.59005627  0.83066711  0.06960726    -0.30400
H2091       H  0.55872191  0.81231148  0.10597718     0.13800
H2092       H  0.59565219  0.83132229  0.04387602     0.14400
C2093       C  0.91113503  0.54859547  0.67321930    -0.15200
C2094       C  0.87916609  0.55130184  0.67951672    -0.30400
H2095       H  0.92100102  0.55959582  0.65139809     0.13800
H2096       H  0.87017548  0.54013608  0.70167194     0.14400
C2097       C  0.95384641  0.60395803  0.79049270    -0.15200
C2098       C  0.93651996  0.60707047  0.81790402    -0.30400
H2099       H  0.95947709  0.62559095  0.77642455     0.13800
H2100       H  0.92890025  0.58551127  0.83106222     0.14400
C2101       C  0.89627081  0.43573712  0.66732321    -0.15200
C2102       C  0.89537060  0.45039741  0.69639946    -0.30400
H2103       H  0.91867625  0.43537779  0.65349257     0.13800
H2104       H  0.87266356  0.45065743  0.70977532     0.14400
C2105       C  0.94283009  0.39276929  0.81841394    -0.15200
C2106       C  0.93653958  0.42479678  0.82210752    -0.30400
H2107       H  0.96221692  0.38570467  0.80199464     0.13800
H2108       H  0.91822308  0.43312930  0.83906246     0.14400
C2109       C  0.10122240  0.43334515  0.68899148    -0.15200
C2110       C  0.06886256  0.43085653  0.68975882    -0.30400
H2111       H  0.11299580  0.45265113  0.70248288     0.13800
H2112       H  0.05690984  0.41269956  0.67490514     0.14400
C2113       C  0.04242632  0.41830372  0.82219272    -0.15200
C2114       C  0.04293100  0.38553767  0.82062416    -0.30400
H2115       H  0.05634680  0.43012313  0.84116728     0.13800
H2116       H  0.02872778  0.37408279  0.80161178     0.14400
C2117       C  0.08689338  0.53776983  0.68292698    -0.15200
C2118       C  0.08175011  0.56020179  0.65977976    -0.30400
H2119       H  0.11140451  0.53424495  0.69220456     0.13800
H2120       H  0.05691695  0.56573463  0.65254485     0.14400
C2121       C  0.04322566  0.59483193  0.79595693    -0.15200
C2122       C  0.06220874  0.59690285  0.82258579    -0.30400
H2123       H  0.03703643  0.61710583  0.78306734     0.13800
H2124       H  0.07061891  0.57487977  0.83457913     0.14400
C2125       C  0.90416160  0.67724974  0.42730731    -0.15200
C2126       C  0.93020081  0.69410848  0.41593521    -0.30400
H2127       H  0.90009371  0.67514642  0.45325373     0.13800
H2128       H  0.93279097  0.69824107  0.39002346     0.14400
C2129       C  0.92826025  0.81667662  0.42967607    -0.15200
C2130       C  0.94059769  0.82931093  0.40160401    -0.30400
H2131       H  0.90206957  0.81739370  0.43270686     0.13800
H2132       H  0.96620007  0.82553056  0.39657330     0.14400
C2133       C  0.93660325  0.68410342  0.58305169    -0.15200
C2134       C  0.91295456  0.66437360  0.57210196    -0.30400
H2135       H  0.93937301  0.68814543  0.60895783     0.13800
H2136       H  0.90822960  0.66254993  0.54621821     0.14400
C2137       C  0.91644788  0.81555150  0.56070010    -0.15200
C2138       C  0.92729108  0.83835082  0.58148392    -0.30400
H2139       H  0.89053036  0.81088961  0.55898431     0.13800
H2140       H  0.95324559  0.84118398  0.58528270     0.14400
C2141       C  0.07038177  0.68225780  0.42343527    -0.15200
C2142       C  0.09803560  0.66564244  0.42805279    -0.30400
H2143       H  0.05746059  0.68011769  0.40052674     0.13800
H2144       H  0.11048845  0.66814592  0.45121305     0.14400
C2145       C  0.06883624  0.81123509  0.42533058    -0.15200
C2146       C  0.06367430  0.82641036  0.39735405    -0.30400
H2147       H  0.09197534  0.81356520  0.43790166     0.13800
H2148       H  0.04045930  0.82377389  0.38496552     0.14400
C2149       C  0.09490252  0.66223584  0.55140439    -0.15200
C2150       C  0.07091736  0.68004378  0.56585906    -0.30400
H2151       H  0.09498658  0.65957568  0.52521539     0.13800
H2152       H  0.07266515  0.68360163  0.59190901     0.14400
C2153       C  0.07652144  0.82416642  0.58360166    -0.15200
C2154       C  0.08631963  0.80296379  0.56024171    -0.30400
H2155       H  0.05075635  0.82897764  0.58659128     0.13800
H2156       H  0.11179220  0.79622143  0.55872702     0.14400
C2157       C  0.70058651  0.45126903  0.87827901    -0.15200
C2158       C  0.67014499  0.43948488  0.87864260    -0.30400
H2159       H  0.71441038  0.45076919  0.85586059     0.13800
H2160       H  0.65556262  0.44069911  0.90051291     0.14400
C2161       C  0.82528973  0.42387678  0.90226871    -0.15200
C2162       C  0.82375485  0.43188613  0.93387854    -0.30400
H2163       H  0.81065386  0.43752565  0.88489794     0.13800
H2164       H  0.83596730  0.41665309  0.95174363     0.14400
C2165       C  0.67601840  0.56012815  0.91270319    -0.15200
C2166       C  0.67717095  0.55416682  0.88070149    -0.30400
H2167       H  0.66254146  0.58114216  0.92126257     0.13800
H2168       H  0.69391537  0.53584886  0.87170924     0.14400
C2169       C  0.83126395  0.59994845  0.91935644    -0.15200
C2170       C  0.80776649  0.58000438  0.90860128    -0.30400
H2171       H  0.83835745  0.59857498  0.94475183     0.13800
H2172       H  0.80074488  0.58084972  0.88317704     0.14400
C2173       C  0.67649209  0.43850062  0.08968436    -0.15200
C2174       C  0.67483674  0.43976544  0.05680735    -0.30400
H2175       H  0.69163528  0.45630929  0.10181111     0.13800
H2176       H  0.65882893  0.42323035  0.04405095     0.14400
C2177       C  0.80598885  0.41160815  0.04223186    -0.15200
C2178       C  0.79987968  0.37950084  0.04394453    -0.30400
H2179       H  0.82787377  0.42070173  0.05380453     0.13800
H2180       H  0.77787264  0.37018422  0.03281848     0.14400
C2181       C  0.68310960  0.56984530  0.06044417    -0.15200
C2182       C  0.67818118  0.56562382  0.09228655    -0.30400
H2183       H  0.67009311  0.58919900  0.04788623     0.13800
H2184       H  0.69075403  0.54603497  0.10490097     0.14400
C2185       C  0.82102060  0.57483701  0.05855062    -0.15200
C2186       C  0.82622347  0.60682658  0.05541299    -0.30400
H2187       H  0.83261269  0.56137811  0.07816786     0.13800
H2188       H  0.81548349  0.61973670  0.03494404     0.14400
C2189       C  0.45029003  0.90658917  0.70722307    -0.15200
C2190       C  0.43534604  0.90413781  0.67853265    -0.30400
H2191       H  0.45120279  0.88544896  0.72309162     0.13800
H2192       H  0.43399896  0.92524363  0.66266401     0.14400
C2193       C  0.42746557  0.95458584  0.82179855    -0.15200
C2194       C  0.39528283  0.95078295  0.81887758    -0.30400
H2195       H  0.44091383  0.93988734  0.83924817     0.13800
H2196       H  0.38158722  0.96653443  0.80257395     0.14400
C2197       C  0.56650569  0.92358976  0.69322317    -0.15200
C2198       C  0.59592631  0.91856211  0.68110087    -0.30400
H2199       H  0.54824330  0.90475703  0.69064771     0.13800
H2200       H  0.61453448  0.93693114  0.68433523     0.14400
C2201       C  0.57547170  0.93070512  0.81401311    -0.15200
C2202       C  0.60495673  0.94446923  0.81749843    -0.30400
H2203       H  0.57167393  0.90579229  0.82188780     0.13800
H2204       H  0.60875504  0.96962267  0.81043229     0.14400
C2205       C  0.46427500  0.08871023  0.67159596    -0.15200
C2206       C  0.43974097  0.09185539  0.65007551    -0.30400
H2207       H  0.47731789  0.11079021  0.67778982     0.13800
H2208       H  0.42583972  0.07068115  0.64296759     0.14400
C2209       C  0.41208266  0.07001960  0.83403313    -0.15200
C2210       C  0.40777456  0.05839189  0.80402334    -0.30400
H2211       H  0.43641380  0.07116553  0.84423600     0.13800
H2212       H  0.38374722  0.05950210  0.79301644     0.14400
C2213       C  0.56329623  0.07341087  0.67790092    -0.15200
C2214       C  0.56291832  0.10605181  0.67595866    -0.30400
H2215       H  0.58024909  0.05964983  0.66318016     0.13800
H2216       H  0.54493506  0.11943796  0.68980881     0.14400
C2217       C  0.58455568  0.05859645  0.81200269    -0.15200
C2218       C  0.61663793  0.05330031  0.81049222    -0.30400
H2219       H  0.57525390  0.07621238  0.82922090     0.13800
H2220       H  0.62577415  0.03569493  0.79316743     0.14400
C2221       C  0.31237021  0.57243264  0.90823395    -0.15200
C2222       C  0.30394704  0.58402846  0.93781718    -0.30400
H2223       H  0.30739639  0.54707256  0.90306550     0.13800
H2224       H  0.30910504  0.60920295  0.94354583     0.14400
C2225       C  0.18427305  0.57943387  0.94118297    -0.15200
C2226       C  0.17664921  0.58568807  0.90992753    -0.30400
H2227       H  0.17748310  0.59693410  0.95962871     0.13800
H2228       H  0.18534503  0.56925846  0.89129322     0.14400
C2229       C  0.29815328  0.45655948  0.90501272    -0.15200
C2230       C  0.32183176  0.43407045  0.90457266    -0.30400
H2231       H  0.28742170  0.46497452  0.88234152     0.13800
H2232       H  0.33165379  0.42443878  0.92716486     0.14400
C2233       C  0.17004693  0.39316287  0.95154044    -0.15200
C2234       C  0.17194441  0.42602536  0.94897424    -0.30400
H2235       H  0.18733087  0.38100104  0.96749815     0.13800
H2236       H  0.15464925  0.43887266  0.93361636     0.14400
C2237       C  0.32113985  0.42478725  0.07719075    -0.15200
C2238       C  0.32461806  0.42774283  0.10949410    -0.30400
H2239       H  0.33617366  0.40731153  0.06443352     0.13800
H2240       H  0.31049602  0.44628039  0.12182016     0.14400
C2241       C  0.16926718  0.40334701  0.07843285    -0.15200
C2242       C  0.19272185  0.39640095  0.05672622    -0.30400
H2243       H  0.16253967  0.42849678  0.08272961     0.13800
H2244       H  0.20109435  0.37149862  0.05408678     0.14400
C2245       C  0.30916510  0.54249405  0.09633632    -0.15200
C2246       C  0.33615577  0.56112911  0.09724068    -0.30400
H2247       H  0.29693355  0.53875114  0.11939470     0.13800
H2248       H  0.35005986  0.56527249  0.07529872     0.14400
C2249       C  0.18030984  0.59965604  0.06197572    -0.15200
C2250       C  0.18280490  0.56752675  0.06660623    -0.30400
H2251       H  0.19315806  0.61120925  0.04207965     0.13800
H2252       H  0.16848594  0.55592172  0.08544753     0.14400
C2253       C  0.44875860  0.32506987  0.92612605    -0.15200
C2254       C  0.41661429  0.32542027  0.92000590    -0.30400
H2255       H  0.46543001  0.33764252  0.91009275     0.13800
H2256       H  0.40076601  0.31083108  0.93522734     0.14400
C2257       C  0.40138511  0.17372536  0.94338608    -0.15200
C2258       C  0.40354831  0.20391436  0.95603296    -0.30400
H2259       H  0.42215815  0.15746746  0.94487944     0.13800
H2260       H  0.38209852  0.21931972  0.95453419     0.14400
C2261       C  0.57261577  0.30733295  0.91738559    -0.15200
C2262       C  0.56362493  0.32434491  0.89092453    -0.30400
H2263       H  0.59817288  0.30681659  0.92405675     0.13800
H2264       H  0.53816657  0.32529588  0.88398887     0.14400
C2265       C  0.58509975  0.18604214  0.95187384    -0.15200
C2266       C  0.58074511  0.16969964  0.92344859    -0.30400
H2267       H  0.60917812  0.18598674  0.96273970     0.13800
H2268       H  0.55796759  0.17275563  0.91041118     0.14400
C2269       C  0.55364471  0.33250543  0.11228900    -0.15200
C2270       C  0.56038622  0.33094382  0.08058201    -0.30400
H2271       H  0.53529698  0.31626268  0.12201041     0.13800
H2272       H  0.57925998  0.34632442  0.07050225     0.14400
C2273       C  0.60468819  0.17404420  0.06811601    -0.15200
C2274       C  0.60405072  0.20430354  0.05494600    -0.30400
H2275       H  0.58256867  0.15980006  0.06894904     0.13800
H2276       H  0.62643998  0.21817964  0.05463619     0.14400
C2277       C  0.45167681  0.32054409  0.09816179    -0.15200
C2278       C  0.45119140  0.31557975  0.13059544    -0.30400
H2279       H  0.43799586  0.34092033  0.08827280     0.13800
H2280       H  0.46448776  0.29465428  0.13988034     0.14400
C2281       C  0.42883400  0.18877133  0.07023177    -0.15200
C2282       C  0.39629606  0.18785918  0.06970638    -0.30400
H2283       H  0.44189572  0.17229538  0.08635168     0.13800
H2284       H  0.38303652  0.20294348  0.05245335     0.14400
C2285       C  0.91696971  0.32253041  0.57378238    -0.15200
C2286       C  0.94419923  0.30792610  0.58545851    -0.30400
H2287       H  0.91294117  0.32390099  0.54774795     0.13800
H2288       H  0.94737541  0.30453953  0.61142751     0.14400
C2289       C  0.95643414  0.18515864  0.58054163    -0.15200
C2290       C  0.92497409  0.18432883  0.58928723    -0.30400
H2291       H  0.97427640  0.17173536  0.59476304     0.13800
H2292       H  0.90740952  0.19667107  0.57377725     0.14400
C2293       C  0.92752556  0.30167076  0.41913474    -0.15200
C2294       C  0.89542993  0.29974495  0.42622643    -0.30400
H2295       H  0.93522730  0.31219435  0.39623237     0.13800
H2296       H  0.88804171  0.28595780  0.44747720     0.14400
C2297       C  0.93733046  0.16737076  0.41511873    -0.15200
C2298       C  0.92691046  0.18212951  0.44248827    -0.30400
H2299       H  0.96283686  0.16831063  0.40853727     0.13800
H2300       H  0.90109464  0.18314183  0.44778796     0.14400
C2301       C  0.07418876  0.31683887  0.42675851    -0.15200
C2302       C  0.09625788  0.33852745  0.43827423    -0.30400
H2303       H  0.07729037  0.30850858  0.40195965     0.13800
H2304       H  0.09463861  0.34704406  0.46310191     0.14400
C2305       C  0.09376221  0.19608377  0.43890191    -0.15200
C2306       C  0.08280383  0.17446819  0.41668495    -0.30400
H2307       H  0.11933013  0.20247268  0.43944545     0.13800
H2308       H  0.05689948  0.17004464  0.41446448     0.14400
C2309       C  0.08900030  0.32477184  0.56489591    -0.15200
C2310       C  0.11998904  0.33369175  0.56048438    -0.30400
H2311       H  0.07669369  0.33143409  0.58719990     0.13800
H2312       H  0.13258941  0.32546051  0.53889214     0.14400
C2313       C  0.08610491  0.19678600  0.58202392    -0.15200
C2314       C  0.07924461  0.18403836  0.61136197    -0.30400
H2315       H  0.10920767  0.19149391  0.57052917     0.13800
H2316       H  0.05560522  0.18879454  0.62201931     0.14400
C2317       C  0.32307653  0.91206585  0.44806035    -0.15200
C2318       C  0.32070719  0.87932573  0.45168486    -0.30400
H2319       H  0.34191768  0.92179438  0.43247065     0.13800
H2320       H  0.30122463  0.87043141  0.46702442     0.14400
C2321       C  0.19954547  0.94685128  0.39995621    -0.15200
C2322       C  0.16896293  0.93583780  0.39628450    -0.30400
H2323       H  0.21540235  0.94636477  0.37893169     0.13800
H2324       H  0.15229824  0.93639668  0.41663019     0.14400
C2325       C  0.31583229  0.91488359  0.55286162    -0.15200
C2326       C  0.31275491  0.88218693  0.55050290    -0.30400
H2327       H  0.33552364  0.92498071  0.56717634     0.13800
H2328       H  0.29251862  0.87244247  0.53669037     0.14400
C2329       C  0.18036002  0.93649121  0.58160337    -0.15200
C2330       C  0.18535430  0.93628701  0.61413068    -0.30400
H2331       H  0.16060324  0.92225273  0.57158285     0.13800
H2332       H  0.20580415  0.95000201  0.62352551     0.14400
C2333       C  0.29841286  0.06678024  0.58858433    -0.15200
C2334       C  0.29567211  0.09879228  0.58110667    -0.30400
H2335       H  0.31363885  0.05896012  0.60874865     0.13800
H2336       H  0.27900813  0.10677878  0.56217400     0.14400
C2337       C  0.18437289  0.07176526  0.58202213    -0.15200
C2338       C  0.18759085  0.06465484  0.61419000    -0.30400
H2339       H  0.17040964  0.09316361  0.57518557     0.13800
H2340       H  0.20423669  0.04522958  0.62096409     0.14400
C2341       C  0.30435238  0.09202227  0.45916939    -0.15200
C2342       C  0.33307367  0.09229487  0.44291345    -0.30400
H2343       H  0.29075994  0.11462173  0.46075655     0.13800
H2344       H  0.34727798  0.07013079  0.44097330     0.14400
C2345       C  0.18279626  0.05352791  0.42415355    -0.15200
C2346       C  0.19000757  0.05749109  0.39242279    -0.30400
H2347       H  0.16132870  0.06513421  0.43410048     0.13800
H2348       H  0.21177434  0.04560840  0.38339635     0.14400
C2349       C  0.56082731  0.93434814  0.32365493    -0.15200
C2350       C  0.55834988  0.90180597  0.32607392    -0.30400
H2351       H  0.57900728  0.94728187  0.33764400     0.13800
H2352       H  0.53894814  0.88967766  0.31295300     0.14400
C2353       C  0.60216947  0.95564834  0.20087990    -0.15200
C2354       C  0.60428975  0.94127340  0.17141237    -0.30400
H2355       H  0.62358157  0.95586758  0.21635745     0.13800
H2356       H  0.58326414  0.94148682  0.15542748     0.14400
C2357       C  0.44886041  0.89676939  0.30653388    -0.15200
C2358       C  0.42748164  0.90290940  0.33086625    -0.30400
H2359       H  0.45185724  0.87195983  0.29820305     0.13800
H2360       H  0.42309036  0.92797437  0.33771793     0.14400
C2361       C  0.39820218  0.93056224  0.17435576    -0.15200
C2362       C  0.43029796  0.92689322  0.17697898    -0.30400
H2363       H  0.38603690  0.94935648  0.18828455     0.13800
H2364       H  0.44287153  0.90908881  0.16217681     0.14400
C2365       C  0.42902174  0.06650149  0.31136535    -0.15200
C2366       C  0.43362934  0.09806674  0.31744158    -0.30400
H2367       H  0.40946263  0.05374100  0.32355760     0.13800
H2368       H  0.45426757  0.11046753  0.30675506     0.14400
C2369       C  0.40526528  0.03777642  0.18509454    -0.15200
C2370       C  0.40451965  0.06045422  0.16134864    -0.30400
H2371       H  0.38194247  0.03036576  0.19493239     0.13800
H2372       H  0.42696841  0.06857560  0.15028104     0.14400
C2373       C  0.55686806  0.08985322  0.30328657    -0.15200
C2374       C  0.58617600  0.09343582  0.31674476    -0.30400
H2375       H  0.53972070  0.10996614  0.30336909     0.13800
H2376       H  0.60239774  0.07254107  0.31741600     0.14400
C2377       C  0.56085437  0.08848278  0.19122297    -0.15200
C2378       C  0.59225056  0.07960875  0.18574329    -0.30400
H2379       H  0.55305181  0.11286208  0.18464481     0.13800
H2380       H  0.60001357  0.05524788  0.19246220     0.14400
C2381       C  0.90127726  0.43979926  0.32014633    -0.15200
C2382       C  0.89906473  0.45348324  0.29023472    -0.30400
H2383       H  0.92481656  0.43837797  0.33206129     0.13800
H2384       H  0.87588730  0.45294105  0.27754671     0.14400
C2385       C  0.94552351  0.42429410  0.16326111    -0.15200
C2386       C  0.94625157  0.39176369  0.16762885    -0.30400
H2387       H  0.93138599  0.43471525  0.14348922     0.13800
H2388       H  0.96058576  0.38245026  0.18785927     0.14400
C2389       C  0.89767860  0.54833278  0.29457205    -0.15200
C2390       C  0.89722558  0.56355226  0.32332020    -0.30400
H2391       H  0.87558296  0.54832415  0.28005883     0.13800
H2392       H  0.91938466  0.56488654  0.33762831     0.14400
C2393       C  0.95342116  0.60468145  0.18962376    -0.15200
C2394       C  0.94151644  0.60957009  0.15944752    -0.30400
H2395       H  0.95236996  0.62504026  0.20629504     0.13800
H2396       H  0.94206592  0.58980757  0.14210454     0.14400
C2397       C  0.07456145  0.54410109  0.32057750    -0.15200
C2398       C  0.10694455  0.53923813  0.32036314    -0.30400
H2399       H  0.06417399  0.56113694  0.33772973     0.13800
H2400       H  0.11632338  0.52226500  0.30252380     0.14400
C2401       C  0.05153556  0.59740087  0.19722585    -0.15200
C2402       C  0.06340539  0.60023845  0.16673205    -0.30400
H2403       H  0.05358638  0.61813980  0.21330210     0.13800
H2404       H  0.06157799  0.57999181  0.15005207     0.14400
C2405       C  0.10694245  0.43346461  0.29818548    -0.15200
C2406       C  0.07511430  0.43777303  0.30505249    -0.30400
H2407       H  0.11714040  0.44510730  0.27684956     0.13800
H2408       H  0.06501950  0.42693978  0.32685242     0.14400
C2409       C  0.05289563  0.41575112  0.17612738    -0.15200
C2410       C  0.05449268  0.38385833  0.18511999    -0.30400
H2411       H  0.06662154  0.42404256  0.15525371     0.13800
H2412       H  0.04129868  0.37658723  0.20672673     0.14400
loop_ 
_geom_bond_atom_site_label_1 
_geom_bond_atom_site_label_2 
_geom_bond_distance 
_geom_bond_site_symmetry_2 
_ccdc_geom_bond_type 
O1            C9   1.266       .  A
O1          Co21   1.984   1_455  S
O2           C10   1.271       .  A
O2          Co22   1.999       .  S
O3           C11   1.283       .  A
O3          Co23   2.061       .  S
O4           C12   1.279       .  A
O4          Co24   2.052       .  S
O5           C11   1.265       .  A
O5          Co22   1.975   1_455  S
O6           C12   1.262       .  A
O6          Co21   1.974       .  S
O7           C10   1.267       .  A
O7          Co24   2.008       .  S
O8            C9   1.270       .  A
O8          Co23   2.024       .  S
C9         C2406   1.490       .  S
C10        C2389   1.485       .  S
C11        C2397   1.503       .  S
C12        C2382   1.494       .  S
O13          C26   1.277       .  A
O13         Co21   2.038       .  S
O14          C27   1.274       .  A
O14         Co22   2.028   1_455  S
O15          C28   1.276       .  A
O15         Co23   2.012       .  S
O16          C29   1.277       .  A
O16         Co24   2.019       .  S
O17          C29   1.270       .  A
O17         Co22   2.014       .  S
O18          C28   1.273       .  A
O18         Co21   2.031   1_455  S
O19          C26   1.268       .  A
O19         Co24   1.986       .  S
O20          C27   1.268       .  A
O20         Co23   1.999       .  S
Co21         O25   2.111       .  S
Co22         O25   2.115       .  S
Co23         O25   2.128   1_455  S
Co24         O25   2.127       .  S
C26        C2385   1.502       .  S
C27        C2401   1.493       .  S
C28        C2409   1.515       .  S
C29        C2393   1.500       .  S
O30          C38   1.270       .  A
O30         Co50   1.903       .  S
O31          C39   1.257       .  A
O31         Co51   1.974       .  S
O32          C40   1.279       .  A
O32         Co52   2.035       .  S
O33          C41   1.277       .  A
O33         Co53   2.010       .  S
O34          C40   1.262       .  A
O34         Co51   1.965   1_545  S
O35          C41   1.275       .  A
O35         Co50   1.988   1_565  S
O36          C39   1.276       .  A
O36         Co53   2.056       .  S
O37          C38   1.289       .  A
O37         Co52   2.103       .  S
C38        C2373   1.486       .  S
C39        C2357   1.505       .  S
C40        C2365   1.477       .  S
C41        C2349   1.483       .  S
O42          C55   1.267       .  A
O42         Co50   2.017   1_565  S
O43          C56   1.269       .  A
O43         Co51   1.999   1_545  S
O44          C57   1.279       .  A
O44         Co52   1.913       .  S
O45          C58   1.261       .  A
O45         Co53   1.946       .  S
O46          C58   1.282       .  A
O46         Co51   2.035       .  S
O47          C57   1.301       .  A
O47         Co50   2.122       .  S
O48          C55   1.264       .  A
O48         Co53   2.005       .  S
O49          C56   1.278       .  A
O49         Co52   2.021       .  S
Co50         O54   2.011   1_545  S
Co51         O54   2.032       .  S
Co52         O54   2.033   1_545  S
Co53         O54   2.058       .  S
C55        C2353   1.498       .  S
C56        C2369   1.498       .  S
C57        C2377   1.505       .  S
C58        C2362   1.468       .  S
O59          C67   1.275       .  A
O59         Co79   1.987       .  S
O60          C68   1.275       .  A
O60         Co80   2.011       .  S
O61          C69   1.268       .  A
O61         Co81   2.000       .  S
O62          C70   1.303       .  A
O62         Co82   2.152   1_545  S
O63          C69   1.273       .  A
O63         Co80   2.014       .  S
O64          C70   1.270       .  A
O64         Co79   1.915       .  S
O65          C68   1.276       .  A
O65         Co82   2.023       .  S
O66          C67   1.286       .  A
O66         Co81   2.045   1_545  S
C67        C2345   1.503       .  S
C68        C2329   1.507       .  S
C69        C2321   1.489       .  S
C70        C2337   1.516       .  S
O71          C84   1.296       .  A
O71         Co79   2.109       .  S
O72          C85   1.283       .  A
O72         Co80   2.051       .  S
O73          C86   1.268       .  A
O73         Co81   2.005   1_545  S
O74          C87   1.275       .  A
O74         Co82   2.000       .  S
O75          C87   1.275       .  A
O75         Co80   2.017       .  S
O76          C86   1.273       .  A
O76         Co79   2.021       .  S
O77          C84   1.274       .  A
O77         Co82   1.897   1_545  S
O78          C85   1.277       .  A
O78         Co81   2.007       .  S
Co79         O83   2.006   1_545  S
Co80         O83   2.056       .  S
Co81         O83   2.053       .  S
Co82         O83   2.021       .  S
C84        C2333   1.477       .  S
C85        C2317   1.517       .  S
C86        C2341   1.499       .  S
C87        C2325   1.496       .  S
O88          C96   1.293       .  A
O88        Co108   2.090       .  S
O89          C97   1.276       .  A
O89        Co109   2.043   1_655  S
O90          C98   1.267       .  A
O90        Co110   1.987       .  S
O91          C99   1.250       .  A
O91        Co111   1.959       .  S
O92          C98   1.282       .  A
O92        Co109   2.049       .  S
O93          C99   1.266       .  A
O93        Co108   2.033   1_655  S
O94          C97   1.260       .  A
O94        Co111   1.961       .  S
O95          C96   1.270       .  A
O95        Co110   1.905       .  S
C96        C2309   1.482       .  S
C97        C2293   1.492       .  S
C98        C2301   1.505       .  S
C99        C2286   1.484       .  S
O100        C113   1.262       .  A
O100       Co108   1.977   1_655  S
O101        C114   1.251       .  A
O101       Co109   1.966       .  S
O102        C115   1.295       .  A
O102       Co110   2.105       .  S
O103        C116   1.269       .  A
O103       Co111   2.017       .  S
O104        C116   1.255       .  A
O104       Co109   1.957   1_655  S
O105        C115   1.266       .  A
O105       Co108   1.907       .  S
O106        C113   1.279       .  A
O106       Co111   2.049       .  S
O107        C114   1.267       .  A
O107       Co110   2.030       .  S
Co108       O112   2.045       .  S
Co109       O112   2.056       .  S
Co110       O112   2.057       .  S
Co111       O112   2.073   1_655  S
C113       C2289   1.499       .  S
C114       C2305   1.487       .  S
C115       C2313   1.485       .  S
C116       C2298   1.476       .  S
O117        C125   1.254       .  A
O117       Co137   1.982       .  S
O118        C126   1.246       .  A
O118       Co138   1.917   1_556  S
O119        C127   1.280       .  A
O119       Co139   2.050       .  S
O120        C128   1.272       .  A
O120       Co140   2.022       .  S
O121        C127   1.253       .  A
O121       Co138   1.940       .  S
O122        C128   1.263       .  A
O122       Co137   1.975   1_556  S
O123        C126   1.285       .  A
O123       Co140   2.092       .  S
O124        C125   1.273       .  A
O124       Co139   2.064       .  S
C125       C2277   1.514       .  S
C126       C2261   1.484       .  S
C127       C2270   1.481       .  S
C128       C2253   1.476       .  S
O129        C142   1.267       .  A
O129       Co137   2.010   1_556  S
O130        C143   1.269       .  A
O130       Co138   2.000       .  S
O131        C144   1.262       .  A
O131       Co139   1.948       .  S
O132        C145   1.272       .  A
O132       Co140   1.995       .  S
O133        C145   1.282       .  A
O133       Co138   2.052   1_556  S
O134        C144   1.287       .  A
O134       Co137   2.066       .  S
O135        C142   1.271       .  A
O135       Co140   2.019       .  S
O136        C143   1.273       .  A
O136       Co139   2.025       .  S
Co137       O141   2.067       .  S
Co138       O141   1.972       .  S
Co139       O141   2.142       .  S
Co140       O141   2.145   1_556  S
C142       C2258   1.502       .  S
C143       C2274   1.495       .  S
C144       C2281   1.484       .  S
C145       C2265   1.507       .  S
O146        C154   1.281       .  A
O146       Co166   2.036       .  S
O147        C155   1.261       .  A
O147       Co167   1.982       .  S
O148        C156   1.286       .  A
O148       Co168   2.061       .  S
O149        C157   1.306       .  A
O149       Co169   2.145       .  S
O150        C156   1.267       .  A
O150       Co167   1.968   1_554  S
O151        C157   1.277       .  A
O151       Co166   1.909   1_556  S
O152        C155   1.260       .  A
O152       Co169   1.984       .  S
O153        C154   1.268       .  A
O153       Co168   1.994       .  S
C154       C2245   1.506       .  S
C155       C2229   1.468       .  S
C156       C2237   1.496       .  S
C157       C2222   1.509       .  S
O158        C171   1.297       .  A
O158       Co166   2.135   1_556  S
O159        C172   1.268       .  A
O159       Co167   2.024   1_554  S
O160        C173   1.263       .  A
O160       Co168   1.971       .  S
O161        C174   1.278       .  A
O161       Co169   2.003       .  S
O162        C174   1.282       .  A
O162       Co167   2.043       .  S
O163        C173   1.275       .  A
O163       Co166   2.015       .  S
O164        C171   1.266       .  A
O164       Co169   1.906       .  S
O165        C172   1.256       .  A
O165       Co168   1.965       .  S
Co166       O170   2.031       .  S
Co167       O170   2.062   1_556  S
Co168       O170   2.025       .  S
Co169       O170   2.010   1_556  S
C171       C2225   1.491       .  S
C172       C2242   1.481       .  S
C173       C2250   1.471       .  S
C174       C2234   1.509       .  S
O175        C183   1.280       .  A
O175       Co195   2.036       .  S
O176        C184   1.259       .  A
O176       Co196   1.986       .  S
O177        C185   1.280       .  A
O177       Co197   1.912       .  S
O178        C186   1.278       .  A
O178       Co198   2.012       .  S
O179        C185   1.285       .  A
O179       Co196   2.079       .  S
O180        C186   1.275       .  A
O180       Co195   2.004       .  S
O181        C184   1.273       .  A
O181       Co198   2.013   1_565  S
O182        C183   1.268       .  A
O182       Co197   1.973   1_545  S
C183       C2213   1.487       .  S
C184       C2189   1.480       .  S
C185       C2197   1.473       .  S
C186       C2205   1.485       .  S
O187        C200   1.267       .  A
O187       Co195   1.985       .  S
O188        C201   1.263       .  A
O188       Co196   1.898       .  S
O189        C202   1.280       .  A
O189       Co197   2.035   1_545  S
O190        C203   1.287       .  A
O190       Co198   2.043   1_565  S
O191        C203   1.271       .  A
O191       Co196   1.958       .  S
O192        C202   1.263       .  A
O192       Co195   1.975       .  S
O193        C200   1.267       .  A
O193       Co198   2.000       .  S
O194        C201   1.289       .  A
O194       Co197   2.100       .  S
Co195       O199   2.011       .  S
Co196       O199   1.965   1_565  S
Co197       O199   2.010   1_565  S
Co198       O199   2.044       .  S
C200       C2210   1.475       .  S
C201       C2201   1.474       .  S
C202       C2217   1.487       .  S
C203       C2193   1.476       .  S
O204        C212   1.282       .  A
O204       Co224   2.056       .  S
O205        C213   1.269       .  A
O205       Co225   1.899       .  S
O206        C214   1.247       .  A
O206       Co226   1.978       .  S
O207        C215   1.271       .  A
O207       Co227   1.987   1_554  S
O208        C214   1.249       .  A
O208       Co225   2.023       .  S
O209        C215   1.277       .  A
O209       Co224   2.040       .  S
O210        C213   1.302       .  A
O210       Co227   2.090       .  S
O211        C212   1.256       .  A
O211       Co226   1.947   1_554  S
C212       C2181   1.484       .  S
C213       C2157   1.469       .  S
C214       C2165   1.470       .  S
C215       C2174   1.509       .  S
O216        C229   1.249       .  A
O216       Co224   1.971       .  S
O217        C230   1.265       .  A
O217       Co225   2.011       .  S
O218        C231   1.258       .  A
O218       Co226   2.007   1_554  S
O219        C232   1.259       .  A
O219       Co227   2.007       .  S
O220        C232   1.252       .  A
O220       Co225   1.972       .  S
O221        C231   1.247       .  A
O221       Co224   1.970       .  S
O222        C229   1.267       .  A
O222       Co227   2.046   1_554  S
O223        C230   1.266       .  A
O223       Co226   2.002       .  S
Co224       O228   2.072   1_554  S
Co225       O228   1.948       .  S
Co226       O228   2.144       .  S
Co227       O228   2.238       .  S
C229       C2177   1.496       .  S
C230       C2170   1.493       .  S
C231       C2185   1.480       .  S
C232       C2162   1.474       .  S
O233        C241   1.267       .  A
O233       Co253   1.980       .  S
O234        C242   1.250       .  A
O234       Co254   1.958       .  S
O235        C243   1.270       .  A
O235       Co255   2.018   1_655  S
O236        C244   1.290       .  A
O236       Co256   2.084       .  S
O237        C243   1.256       .  A
O237       Co254   1.954       .  S
O238        C244   1.274       .  A
O238       Co253   1.918       .  S
O239        C242   1.269       .  A
O239       Co256   2.035   1_655  S
O240        C241   1.285       .  A
O240       Co255   2.067       .  S
C241       C2150   1.513       .  S
C242       C2126   1.484       .  S
C243       C2133   1.475       .  S
C244       C2141   1.489       .  S
O245        C258   1.282       .  A
O245       Co253   2.054       .  S
O246        C259   1.271       .  A
O246       Co254   2.020       .  S
O247        C260   1.254       .  A
O247       Co255   1.967       .  S
O248        C261   1.270       .  A
O248       Co256   1.993   1_655  S
O249        C261   1.283       .  A
O249       Co254   2.063       .  S
O250        C260   1.274       .  A
O250       Co253   2.053       .  S
O251        C258   1.275       .  A
O251       Co256   1.894       .  S
O252        C259   1.260       .  A
O252       Co255   1.970   1_655  S
Co253       O257   2.037   1_455  S
Co254       O257   2.051       .  S
Co255       O257   2.055   1_455  S
Co256       O257   2.042   1_455  S
C258       C2145   1.456       .  S
C259       C2137   1.484       .  S
C260       C2154   1.499       .  S
C261       C2129   1.518       .  S
O262        C270   1.267       .  A
O262       Co282   1.982   1_455  S
O263        C271   1.266       .  A
O263       Co283   1.994       .  S
O264        C272   1.280       .  A
O264       Co284   2.056       .  S
O265        C273   1.282       .  A
O265       Co285   2.053       .  S
O266        C272   1.255       .  A
O266       Co283   1.945   1_455  S
O267        C273   1.266       .  A
O267       Co282   1.974       .  S
O268        C271   1.265       .  A
O268       Co285   2.008       .  S
O269        C270   1.266       .  A
O269       Co284   2.009       .  S
C270       C2117   1.480       .  S
C271       C2102   1.480       .  S
C272       C2110   1.478       .  S
C273       C2093   1.497       .  S
O274        C287   1.269       .  A
O274       Co282   2.018       .  S
O275        C288   1.279       .  A
O275       Co283   2.069   1_455  S
O276        C289   1.271       .  A
O276       Co284   1.995       .  S
O277        C290   1.273       .  A
O277       Co285   2.000       .  S
O278        C290   1.269       .  A
O278       Co283   1.997       .  S
O279        C289   1.272       .  A
O279       Co282   2.023   1_455  S
O280        C287   1.266       .  A
O280       Co285   1.983       .  S
O281        C288   1.261       .  A
O281       Co284   1.972       .  S
Co282       O286   2.109       .  S
Co283       O286   2.107       .  S
Co284       O286   2.122   1_455  S
Co285       O286   2.121       .  S
C287       C2097   1.481       .  S
C288       C2113   1.506       .  S
C289       C2121   1.487       .  S
C290       C2106   1.489       .  S
O291        C299   1.283       .  A
O291       Co311   2.060   1_554  S
O292        C300   1.269       .  A
O292       Co312   2.037       .  S
O293        C301   1.269       .  A
O293       Co313   1.897       .  S
O294        C302   1.247       .  A
O294       Co314   1.939       .  S
O295        C301   1.294       .  A
O295       Co312   2.095   1_554  S
O296        C302   1.268       .  A
O296       Co311   2.033       .  S
O297        C300   1.252       .  A
O297       Co314   1.976       .  S
O298        C299   1.269       .  A
O298       Co313   2.003       .  S
C299       C2086   1.518       .  S
C300       C2069   1.496       .  S
C301       C2077   1.474       .  S
C302       C2061   1.469       .  S
O303        C316   1.259       .  A
O303       Co311   1.966       .  S
O304        C317   1.268       .  A
O304       Co312   1.896   1_554  S
O305        C318   1.266       .  A
O305       Co313   2.030       .  S
O306        C319   1.280       .  A
O306       Co314   2.044       .  S
O307        C319   1.268       .  A
O307       Co312   1.992       .  S
O308        C318   1.249       .  A
O308       Co311   1.958   1_554  S
O309        C316   1.278       .  A
O309       Co314   2.054       .  S
O310        C317   1.299       .  A
O310       Co313   2.112       .  S
Co311       O315   2.079       .  S
Co312       O315   2.037       .  S
Co313       O315   2.050   1_554  S
Co314       O315   2.053       .  S
C316       C2065   1.501       .  S
C317       C2081   1.487       .  S
C318       C2089   1.483       .  S
C319       C2073   1.503       .  S
O320        C328   1.265       .  A
O320       Co340   1.887       .  S
O321        C329   1.255       .  A
O321       Co341   1.953       .  S
O322        C330   1.254       .  A
O322       Co342   1.987       .  S
O323        C331   1.275       .  A
O323       Co343   2.033       .  S
O324        C330   1.248       .  A
O324       Co341   1.962       .  S
O325        C331   1.261       .  A
O325       Co340   1.968       .  S
O326        C329   1.272       .  A
O326       Co343   2.034       .  S
O327        C328   1.287       .  A
O327       Co342   2.089       .  S
C328       C2056   1.407       .  S
C329       C2057   1.434       .  S
C330       C2053   1.409       .  S
C331       C2059   1.439       .  S
O332        C345   1.261       .  A
O332       Co340   1.989       .  S
O333        C346   1.286       .  A
O333       Co341   2.039       .  S
O334        C347   1.262       .  A
O334       Co342   1.896       .  S
O335        C348   1.262       .  A
O335       Co343   1.961       .  S
O336        C348   1.268       .  A
O336       Co341   2.000       .  S
O337        C347   1.301       .  A
O337       Co340   2.125       .  S
O338        C345   1.258       .  A
O338       Co343   1.978       .  S
O339        C346   1.272       .  A
O339       Co342   1.969       .  S
Co340       O344   1.993       .  S
Co341       O344   2.004       .  S
Co342       O344   2.003       .  S
Co343       O344   2.047       .  S
C345       C2051   1.427       .  S
C346       C2101   1.487       .  S
C347       C2285   1.481       .  S
C348       C2049   1.420       .  S
O349        C357   1.293       .  A
O349       Co369   2.104       .  S
O350        C358   1.273       .  A
O350       Co370   2.022       .  S
O351        C359   1.272       .  A
O351       Co371   1.972       .  S
O352        C360   1.247       .  A
O352       Co372   1.944       .  S
O353        C359   1.280       .  A
O353       Co370   2.008       .  S
O354        C360   1.267       .  A
O354       Co369   2.016       .  S
O355        C358   1.257       .  A
O355       Co372   1.947       .  S
O356        C357   1.272       .  A
O356       Co371   1.917       .  S
C357       C2262   1.493       .  S
C358       C2042   1.425       .  S
C359       C2158   1.479       .  S
C360       C2039   1.421       .  S
O361        C374   1.264       .  A
O361       Co369   1.957       .  S
O362        C375   1.262       .  A
O362       Co370   1.979       .  S
O363        C376   1.281       .  A
O363       Co371   2.070       .  S
O364        C377   1.268       .  A
O364       Co372   2.019       .  S
O365        C377   1.262       .  A
O365       Co370   1.970       .  S
O366        C376   1.272       .  A
O366       Co369   1.913       .  S
O367        C374   1.278       .  A
O367       Co372   2.034       .  S
O368        C375   1.265       .  A
O368       Co371   2.004       .  S
Co369       O373   2.016       .  S
Co370       O373   2.013       .  S
Co371       O373   2.004       .  S
Co372       O373   2.027       .  S
C374       C2048   1.434       .  S
C375       C2043   1.430       .  S
C376       C2046   1.423       .  S
C377       C2058   1.437       .  S
O378        C386   1.268       .  A
O378       Co398   1.871       .  S
O379        C387   1.265       .  A
O379       Co399   1.970       .  S
O380        C388   1.255       .  A
O380       Co400   1.970       .  S
O381        C389   1.274       .  A
O381       Co401   2.025       .  S
O382        C388   1.258       .  A
O382       Co399   1.963       .  S
O383        C389   1.264       .  A
O383       Co398   1.966       .  S
O384        C387   1.274       .  A
O384       Co401   2.030       .  S
O385        C386   1.289       .  A
O385       Co400   2.105       .  S
C386       C2034   1.400       .  S
C387       C2060   1.440       .  S
C388       C2031   1.399       .  S
C389       C2047   1.434       .  S
O390        C403   1.259       .  A
O390       Co398   1.978       .  S
O391        C404   1.283       .  A
O391       Co399   2.029       .  S
O392        C405   1.268       .  A
O392       Co400   1.904       .  S
O393        C406   1.258       .  A
O393       Co401   1.939       .  S
O394        C406   1.263       .  A
O394       Co399   1.979       .  S
O395        C405   1.297       .  A
O395       Co398   2.134       .  S
O396        C403   1.258       .  A
O396       Co401   1.970       .  S
O397        C404   1.278       .  A
O397       Co400   1.985       .  S
Co398       O402   1.976       .  S
Co399       O402   2.007       .  S
Co400       O402   1.989       .  S
Co401       O402   2.031       .  S
C403       C2028   1.412       .  S
C404       C2035   1.495       .  S
C405       C2214   1.486       .  S
C406       C2029   1.389       .  S
O407        C415   1.257       .  A
O407       Co427   1.982       .  S
O408        C416   1.261       .  A
O408       Co428   1.971       .  S
O409        C417   1.286       .  A
O409       Co429   2.064       .  S
O410        C418   1.270       .  A
O410       Co430   2.040       .  S
O411        C417   1.252       .  A
O411       Co428   1.866       .  S
O412        C418   1.252       .  A
O412       Co427   1.969       .  S
O413        C416   1.278       .  A
O413       Co430   2.066       .  S
O414        C415   1.242       .  A
O414       Co429   1.920       .  S
C415       C2055   1.405       .  S
C416       C2024   1.473       .  S
C417       C2032   1.398       .  S
C418       C2025   1.457       .  S
O419        C432   1.265       .  A
O419       Co427   2.005       .  S
O420        C433   1.272       .  A
O420       Co428   2.071       .  S
O421        C434   1.260       .  A
O421       Co429   1.972       .  S
O422        C435   1.251       .  A
O422       Co430   1.965       .  S
O423        C435   1.256       .  A
O423       Co428   1.994       .  S
O424        C434   1.276       .  A
O424       Co427   2.040       .  S
O425        C432   1.257       .  A
O425       Co430   1.962       .  S
O426        C433   1.244       .  A
O426       Co429   1.938       .  S
Co427       O431   2.116       .  S
Co428       O431   2.018       .  S
Co429       O431   2.060       .  S
Co430       O431   2.101       .  S
C432       C2015   1.431       .  S
C433       C2019   1.496       .  S
C434       C2290   1.493       .  S
C435       C2018   1.419       .  S
O436        C444   1.252       .  A
O436       Co456   1.964       .  S
O437        C445   1.257       .  A
O437       Co457   1.948       .  S
O438        C446   1.303       .  A
O438       Co458   2.099       .  S
O439        C447   1.268       .  A
O439       Co459   2.014       .  S
O440        C446   1.262       .  A
O440       Co457   1.898       .  S
O441        C447   1.249       .  A
O441       Co456   1.932       .  S
O442        C445   1.283       .  A
O442       Co459   2.061       .  S
O443        C444   1.266       .  A
O443       Co458   2.048       .  S
C444       C2266   1.508       .  S
C445       C2012   1.444       .  S
C446       C2218   1.485       .  S
C447       C2009   1.408       .  S
O448        C461   1.268       .  A
O448       Co456   2.032       .  S
O449        C462   1.290       .  A
O449       Co457   2.074       .  S
O450        C463   1.252       .  A
O450       Co458   1.959       .  S
O451        C464   1.246       .  A
O451       Co459   1.973       .  S
O452        C464   1.269       .  A
O452       Co457   2.061       .  S
O453        C463   1.273       .  A
O453       Co456   2.031       .  S
O454        C461   1.254       .  A
O454       Co459   1.961       .  S
O455        C462   1.259       .  A
O455       Co458   1.873       .  S
Co456       O460   2.073       .  S
Co457       O460   2.025       .  S
Co458       O460   2.023       .  S
Co459       O460   2.054       .  S
C461       C2014   1.445       .  S
C462       C2033   1.399       .  S
C463       C2045   1.424       .  S
C464       C2023   1.472       .  S
O465        C473   1.277       .  A
O465       Co485   2.022       .  S
O466        C474   1.271       .  A
O466       Co486   2.040       .  S
O467        C475   1.262       .  A
O467       Co487   1.888       .  S
O468        C476   1.258       .  A
O468       Co488   1.965       .  S
O469        C475   1.283       .  A
O469       Co486   2.070       .  S
O470        C476   1.271       .  A
O470       Co485   2.030       .  S
O471        C474   1.257       .  A
O471       Co488   1.979       .  S
O472        C473   1.266       .  A
O472       Co487   1.969       .  S
C473       C2044   1.430       .  S
C474       C2026   1.457       .  S
C475       C2054   1.410       .  S
C476       C2013   1.445       .  S
O477        C490   1.255       .  A
O477       Co485   1.939       .  S
O478        C491   1.267       .  A
O478       Co486   1.893       .  S
O479        C492   1.259       .  A
O479       Co487   2.005       .  S
O480        C493   1.277       .  A
O480       Co488   2.040       .  S
O481        C493   1.260       .  A
O481       Co486   1.954       .  S
O482        C492   1.256       .  A
O482       Co485   1.983       .  S
O483        C490   1.272       .  A
O483       Co488   2.011       .  S
O484        C491   1.297       .  A
O484       Co487   2.110       .  S
Co485       O489   2.041       .  S
Co486       O489   1.997       .  S
Co487       O489   2.008       .  S
Co488       O489   2.039       .  S
C490       C2005   1.413       .  S
C491       C2105   1.482       .  S
C492       C2161   1.484       .  S
C493       C2007   1.438       .  S
O494        C502   1.219       .  A
O494       Co514   1.954       .  S
O495        C503   1.254       .  A
O495       Co515   1.935       .  S
O496        C504   1.266       .  A
O496       Co516   2.008       .  S
O497        C505   1.264       .  A
O497       Co517   1.969       .  S
O498        C504   1.254       .  A
O498       Co515   1.952       .  S
O499        C505   1.283       .  A
O499       Co514   2.037       .  S
O500        C503   1.274       .  A
O500       Co517   2.034       .  S
O501        C502   1.247       .  A
O501       Co516   2.045       .  S
C502       C1999   1.417       .  S
C503       C2003   1.424       .  S
C504       C1997   1.415       .  S
C505       C2001   1.448       .  S
O506        C519   1.251       .  A
O506       Co514   1.960       .  S
O507        C520   1.273       .  A
O507       Co515   2.002       .  S
O508        C521   1.287       .  A
O508       Co516   1.940       .  S
O509        C522   1.254       .  A
O509       Co517   1.947       .  S
O510        C522   1.267       .  A
O510       Co515   2.001       .  S
O511        C521   1.308       .  A
O511       Co514   2.039       .  S
O512        C519   1.263       .  A
O512       Co517   2.010       .  S
O513        C520   1.271       .  A
O513       Co516   1.991       .  S
Co514       O518   1.988       .  S
Co515       O518   2.018       .  S
Co516       O518   2.075       .  S
Co517       O518   2.052       .  S
C519       C1996   1.433       .  S
C520       C2206   1.489       .  S
C521       C2334   1.481       .  S
C522       C2027   1.412       .  S
O523        C531   1.275       .  A
O523       Co543   2.007       .  S
O524        C532   1.263       .  A
O524       Co544   2.001       .  S
O525        C533   1.270       .  A
O525       Co545   1.905       .  S
O526        C534   1.260       .  A
O526       Co546   1.956       .  S
O527        C533   1.292       .  A
O527       Co544   2.105       .  S
O528        C534   1.272       .  A
O528       Co543   2.018       .  S
O529        C532   1.255       .  A
O529       Co546   1.966       .  S
O530        C531   1.275       .  A
O530       Co545   1.984       .  S
C531       C2310   1.469       .  S
C532       C1985   1.424       .  S
C533       C2109   1.480       .  S
C534       C1987   1.427       .  S
O535        C548   1.256       .  A
O535       Co543   1.958       .  S
O536        C549   1.267       .  A
O536       Co544   1.891       .  S
O537        C550   1.262       .  A
O537       Co545   1.993       .  S
O538        C551   1.278       .  A
O538       Co546   2.047       .  S
O539        C551   1.257       .  A
O539       Co544   1.947       .  S
O540        C550   1.257       .  A
O540       Co543   1.965       .  S
O541        C548   1.273       .  A
O541       Co546   2.043       .  S
O542        C549   1.289       .  A
O542       Co545   2.109       .  S
Co543       O547   2.015       .  S
Co544       O547   1.997       .  S
Co545       O547   2.001       .  S
Co546       O547   2.046       .  S
C548       C2002   1.449       .  S
C549       C1989   1.420       .  S
C550       C1991   1.414       .  S
C551       C1994   1.438       .  S
O552        C560   1.276       .  A
O552       Co572   2.020       .  S
O553        C561   1.267       .  A
O553       Co573   2.043       .  S
O554        C562   1.259       .  A
O554       Co574   1.886       .  S
O555        C563   1.247       .  A
O555       Co575   1.932       .  S
O556        C562   1.288       .  A
O556       Co573   2.087       .  S
O557        C563   1.268       .  A
O557       Co572   2.034       .  S
O558        C561   1.242       .  A
O558       Co575   1.943       .  S
O559        C560   1.268       .  A
O559       Co574   1.970       .  S
C560       C1982   1.430       .  S
C561       C1993   1.435       .  S
C562       C1984   1.421       .  S
C563       C2004   1.422       .  S
O564        C577   1.255       .  A
O564       Co572   1.945       .  S
O565        C578   1.269       .  A
O565       Co573   1.882       .  S
O566        C579   1.260       .  A
O566       Co574   2.002       .  S
O567        C580   1.275       .  A
O567       Co575   2.036       .  S
O568        C580   1.260       .  A
O568       Co573   1.957       .  S
O569        C579   1.258       .  A
O569       Co572   1.983       .  S
O570        C577   1.270       .  A
O570       Co575   2.017       .  S
O571        C578   1.297       .  A
O571       Co574   2.103       .  S
Co572       O576   2.045       .  S
Co573       O576   2.018       .  S
Co574       O576   1.991       .  S
Co575       O576   2.024       .  S
C577       C2040   1.419       .  S
C578       C2230   1.473       .  S
C579       C2254   1.482       .  S
C580       C1980   1.437       .  S
O581        C589   1.270       .  A
O581       Co601   2.066       .  S
O582        C590   1.283       .  A
O582       Co602   2.053       .  S
O583        C591   1.271       .  A
O583       Co603   2.004       .  S
O584        C592   1.263       .  A
O584       Co604   1.974       .  S
O585        C591   1.270       .  A
O585       Co602   2.019       .  S
O586        C592   1.274       .  A
O586       Co601   2.022       .  S
O587        C590   1.258       .  A
O587       Co604   1.944       .  S
O588        C589   1.248       .  A
O588       Co603   1.963       .  S
C589       C2233   1.507       .  S
C590       C2008   1.441       .  S
C591       C2114   1.506       .  S
C592       C1973   1.439       .  S
O593        C606   1.270       .  A
O593       Co601   1.990       .  S
O594        C607   1.267       .  A
O594       Co602   2.002       .  S
O595        C608   1.306       .  A
O595       Co603   2.116       .  S
O596        C609   1.276       .  A
O596       Co604   2.072       .  S
O597        C609   1.247       .  A
O597       Co602   1.960       .  S
O598        C608   1.274       .  A
O598       Co601   1.855       .  S
O599        C606   1.270       .  A
O599       Co604   2.025       .  S
O600        C607   1.255       .  A
O600       Co603   1.951       .  S
Co601       O605   1.984       .  S
Co602       O605   2.078       .  S
Co603       O605   2.067       .  S
Co604       O605   2.089       .  S
C606       C1975   1.457       .  S
C607       C1990   1.420       .  S
C608       C1983   1.421       .  S
C609       C1977   1.471       .  S
O610        C618   1.243       .  A
O610       Co630   1.951       .  S
O611        C619   1.267       .  A
O611       Co631   1.992       .  S
O612        C620   1.294       .  A
O612       Co632   2.113       .  S
O613        C621   1.269       .  A
O613       Co633   2.030       .  S
O614        C620   1.261       .  A
O614       Co631   1.877       .  S
O615        C621   1.247       .  A
O615       Co630   1.936       .  S
O616        C619   1.279       .  A
O616       Co633   2.060       .  S
O617        C618   1.261       .  A
O617       Co632   2.010       .  S
C618       C2000   1.419       .  S
C619       C1978   1.474       .  S
C620       C1992   1.414       .  S
C621       C1972   1.425       .  S
O622        C635   1.272       .  A
O622       Co630   2.019       .  S
O623        C636   1.300       .  A
O623       Co631   2.115       .  S
O624        C637   1.277       .  A
O624       Co632   2.003       .  S
O625        C638   1.258       .  A
O625       Co633   1.981       .  S
O626        C638   1.259       .  A
O626       Co631   1.990       .  S
O627        C637   1.284       .  A
O627       Co630   2.052       .  S
O628        C635   1.262       .  A
O628       Co633   1.962       .  S
O629        C636   1.271       .  A
O629       Co632   1.901       .  S
Co630       O634   2.010       .  S
Co631       O634   1.996       .  S
Co632       O634   2.035       .  S
Co633       O634   2.069       .  S
C635       C1969   1.433       .  S
C636       C2314   1.482       .  S
C637       C2338   1.514       .  S
C638       C2016   1.430       .  S
O639        C647   1.253       .  A
O639       Co659   1.973       .  S
O640        C648   1.270       .  A
O640       Co660   1.983       .  S
O641        C649   1.300       .  A
O641       Co661   2.134       .  S
O642        C650   1.282       .  A
O642       Co662   2.067       .  S
O643        C649   1.260       .  A
O643       Co660   1.869       .  S
O644        C650   1.253       .  A
O644       Co659   1.953       .  S
O645        C648   1.266       .  A
O645       Co662   1.998       .  S
O646        C647   1.259       .  A
O646       Co661   2.004       .  S
C647       C1981   1.431       .  S
C648       C1971   1.431       .  S
C649       C1998   1.417       .  S
C650       C1976   1.455       .  S
O651        C664   1.273       .  A
O651       Co659   2.021       .  S
O652        C665   1.306       .  A
O652       Co660   2.142       .  S
O653        C666   1.272       .  A
O653       Co661   1.990       .  S
O654        C667   1.270       .  A
O654       Co662   2.014       .  S
O655        C667   1.257       .  A
O655       Co660   1.987       .  S
O656        C666   1.281       .  A
O656       Co659   2.046       .  S
O657        C664   1.258       .  A
O657       Co662   1.947       .  S
O658        C665   1.261       .  A
O658       Co661   1.862       .  S
Co659       O663   2.034       .  S
Co660       O663   1.989       .  S
Co661       O663   1.998       .  S
Co662       O663   2.058       .  S
C664       C1965   1.422       .  S
C665       C2209   1.465       .  S
C666       C2257   1.508       .  S
C667       C1967   1.451       .  S
O668        C676   1.277       .  A
O668       Co688   2.029       .  S
O669        C677   1.243       .  A
O669       Co689   1.957       .  S
O670        C678   1.258       .  A
O670       Co690   1.960       .  S
O671        C679   1.251       .  A
O671       Co691   1.956       .  S
O672        C678   1.276       .  A
O672       Co689   2.052       .  S
O673        C679   1.261       .  A
O673       Co688   1.995       .  S
O674        C677   1.255       .  A
O674       Co691   1.989       .  S
O675        C676   1.250       .  A
O675       Co690   1.940       .  S
C676       C2198   1.475       .  S
C677       C1951   1.411       .  S
C678       C1957   1.493       .  S
C679       C1949   1.423       .  S
O680        C693   1.254       .  A
O680       Co688   1.955       .  S
O681        C694   1.238       .  A
O681       Co689   1.907       .  S
O682        C695   1.246       .  A
O682       Co690   1.959       .  S
O683        C696   1.283       .  A
O683       Co691   2.090       .  S
O684        C696   1.246       .  A
O684       Co689   1.932       .  S
O685        C695   1.256       .  A
O685       Co688   1.988       .  S
O686        C693   1.270       .  A
O686       Co691   2.028       .  S
O687        C694   1.262       .  A
O687       Co690   1.987       .  S
Co688       O692   2.116       .  S
Co689       O692   2.024       .  S
Co690       O692   2.019       .  S
Co691       O692   2.109       .  S
C693       C1962   1.442       .  S
C694       C1955   1.379       .  S
C695       C1953   1.422       .  S
C696       C1964   1.461       .  S
O697        C705   1.303       .  A
O697       Co717   2.130       .  S
O698        C706   1.274       .  A
O698       Co718   2.016       .  S
O699        C707   1.277       .  A
O699       Co719   2.000       .  S
O700        C708   1.253       .  A
O700       Co720   1.968       .  S
O701        C707   1.274       .  A
O701       Co718   2.013       .  S
O702        C708   1.262       .  A
O702       Co717   2.003       .  S
O703        C706   1.262       .  A
O703       Co720   1.947       .  S
O704        C705   1.272       .  A
O704       Co719   1.880       .  S
C705       C2134   1.467       .  S
C706       C2050   1.420       .  S
C707       C2094   1.490       .  S
C708       C1942   1.430       .  S
O709        C722   1.273       .  A
O709       Co717   1.994       .  S
O710        C723   1.254       .  A
O710       Co718   1.960       .  S
O711        C724   1.288       .  A
O711       Co719   2.108       .  S
O712        C725   1.266       .  A
O712       Co720   2.015       .  S
O713        C725   1.251       .  A
O713       Co718   1.942       .  S
O714        C724   1.265       .  A
O714       Co717   1.894       .  S
O715        C722   1.280       .  A
O715       Co720   2.044       .  S
O716        C723   1.262       .  A
O716       Co719   1.992       .  S
Co717       O721   1.987       .  S
Co718       O721   2.000       .  S
Co719       O721   2.005       .  S
Co720       O721   2.044       .  S
C722       C1963   1.466       .  S
C723       C1943   1.410       .  S
C724       C1946   1.426       .  S
C725       C1948   1.416       .  S
O726        C734   1.282       .  A
O726       Co746   2.048       .  S
O727        C735   1.252       .  A
O727       Co747   1.991       .  S
O728        C736   1.292       .  A
O728       Co748   2.046       .  S
O729        C737   1.265       .  A
O729       Co749   1.968       .  S
O730        C736   1.279       .  A
O730       Co747   1.937       .  S
O731        C737   1.269       .  A
O731       Co746   2.004       .  S
O732        C735   1.248       .  A
O732       Co749   1.961       .  S
O733        C734   1.263       .  A
O733       Co748   1.933       .  S
C734       C2166   1.475       .  S
C735       C1935   1.433       .  S
C736       C2062   1.466       .  S
C737       C2041   1.425       .  S
O738        C751   1.260       .  A
O738       Co746   1.971       .  S
O739        C752   1.258       .  A
O739       Co747   1.969       .  S
O740        C753   1.271       .  A
O740       Co748   2.028       .  S
O741        C754   1.263       .  A
O741       Co749   1.973       .  S
O742        C754   1.273       .  A
O742       Co747   2.009       .  S
O743        C753   1.262       .  A
O743       Co746   1.985       .  S
O744        C751   1.259       .  A
O744       Co749   1.988       .  S
O745        C752   1.257       .  A
O745       Co748   1.989       .  S
Co746       O750   2.059       .  S
Co747       O750   1.963       .  S
Co748       O750   2.073       .  S
Co749       O750   2.080       .  S
C751       C1947   1.420       .  S
C752       C1939   1.416       .  S
C753       C1937   1.446       .  S
C754       C1961   1.441       .  S
O755        C763   1.297       .  A
O755       Co775   2.116       .  S
O756        C764   1.270       .  A
O756       Co776   2.006       .  S
O757        C765   1.279       .  A
O757       Co777   1.998       .  S
O758        C766   1.255       .  A
O758       Co778   1.972       .  S
O759        C765   1.281       .  A
O759       Co776   2.040       .  S
O760        C766   1.258       .  A
O760       Co775   1.986       .  S
O761        C764   1.263       .  A
O761       Co778   1.957       .  S
O762        C763   1.270       .  A
O762       Co777   1.904       .  S
C763       C2138   1.476       .  S
C764       C2017   1.420       .  S
C765       C1927   1.505       .  S
C766       C1925   1.420       .  S
O767        C780   1.266       .  A
O767       Co775   1.973       .  S
O768        C781   1.254       .  A
O768       Co776   1.952       .  S
O769        C782   1.285       .  A
O769       Co777   2.107       .  S
O770        C783   1.271       .  A
O770       Co778   2.040       .  S
O771        C783   1.259       .  A
O771       Co776   1.976       .  S
O772        C782   1.264       .  A
O772       Co775   1.904       .  S
O773        C780   1.282       .  A
O773       Co778   2.059       .  S
O774        C781   1.253       .  A
O774       Co777   1.952       .  S
Co775       O779   2.014       .  S
Co776       O779   2.022       .  S
Co777       O779   2.026       .  S
Co778       O779   2.049       .  S
C780       C1931   1.461       .  S
C781       C1956   1.378       .  S
C782       C1945   1.425       .  S
C783       C1933   1.459       .  S
O784        C792   1.254       .  A
O784       Co804   1.973       .  S
O785        C793   1.264       .  A
O785       Co805   1.969       .  S
O786        C794   1.293       .  A
O786       Co806   2.092       .  S
O787        C795   1.268       .  A
O787       Co807   2.038       .  S
O788        C794   1.268       .  A
O788       Co805   1.910       .  S
O789        C795   1.243       .  A
O789       Co804   1.937       .  S
O790        C793   1.282       .  A
O790       Co807   2.053       .  S
O791        C792   1.267       .  A
O791       Co806   2.037       .  S
C792       C2169   1.490       .  S
C793       C1922   1.457       .  S
C794       C2098   1.484       .  S
C795       C1920   1.433       .  S
O796        C809   1.278       .  A
O796       Co804   2.052       .  S
O797        C810   1.287       .  A
O797       Co805   2.070       .  S
O798        C811   1.266       .  A
O798       Co806   1.982       .  S
O799        C812   1.243       .  A
O799       Co807   1.957       .  S
O800        C812   1.269       .  A
O800       Co805   2.047       .  S
O801        C811   1.272       .  A
O801       Co804   2.023       .  S
O802        C809   1.248       .  A
O802       Co807   1.927       .  S
O803        C810   1.267       .  A
O803       Co806   1.885       .  S
Co804       O808   2.039       .  S
Co805       O808   2.024       .  S
Co806       O808   2.024       .  S
Co807       O808   2.058       .  S
C809       C1923   1.436       .  S
C810       C1944   1.412       .  S
C811       C1938   1.444       .  S
C812       C1932   1.457       .  S
O813        C821   1.274       .  A
O813       Co833   2.001       .  S
O814        C822   1.269       .  A
O814       Co834   2.022       .  S
O815        C823   1.248       .  A
O815       Co835   1.994       .  S
O816        C824   1.254       .  A
O816       Co836   1.969       .  S
O817        C823   1.259       .  A
O817       Co834   2.024       .  S
O818        C824   1.264       .  A
O818       Co833   2.014       .  S
O819        C822   1.252       .  A
O819       Co836   1.957       .  S
O820        C821   1.269       .  A
O820       Co835   1.978       .  S
C821       C2202   1.476       .  S
C822       C1918   1.430       .  S
C823       C2066   1.496       .  S
C824       C2011   1.448   1_565  S
O825        C838   1.255       .  A
O825       Co833   1.965       .  S
O826        C839   1.267       .  A
O826       Co834   1.928       .  S
O827        C840   1.238       .  A
O827       Co835   1.943       .  S
O828        C841   1.265       .  A
O828       Co836   2.020       .  S
O829        C841   1.256       .  A
O829       Co834   1.965       .  S
O830        C840   1.257       .  A
O830       Co833   2.012       .  S
O831        C838   1.272       .  A
O831       Co836   2.040       .  S
O832        C839   1.273       .  A
O832       Co835   2.015       .  S
Co833       O837   2.123       .  S
Co834       O837   2.014       .  S
Co835       O837   2.070       .  S
Co836       O837   2.096       .  S
C838       C1934   1.458       .  S
C839       C1940   1.419       .  S
C840       C1954   1.424       .  S
C841       C1924   1.442       .  S
O842        C850   1.284       .  A
O842       Co862   2.062       .  S
O843        C851   1.244       .  A
O843       Co863   1.978       .  S
O844        C852   1.291       .  A
O844       Co864   2.043       .  S
O845        C853   1.269       .  A
O845       Co865   1.964       .  S
O846        C852   1.288       .  A
O846       Co863   1.962       .  S
O847        C853   1.270       .  A
O847       Co862   1.998       .  S
O848        C851   1.246       .  A
O848       Co865   1.961       .  S
O849        C850   1.265       .  A
O849       Co864   1.953       .  S
C850       C2326   1.490       .  S
C851       C1950   1.421       .  S
C852       C2190   1.482       .  S
C853       C1907   1.418       .  S
O854        C867   1.254       .  A
O854       Co862   1.974       .  S
O855        C868   1.259       .  A
O855       Co863   1.976       .  S
O856        C869   1.265       .  A
O856       Co864   2.009       .  S
O857        C870   1.266       .  A
O857       Co865   1.979       .  S
O858        C870   1.281       .  A
O858       Co863   2.031       .  S
O859        C869   1.248       .  A
O859       Co862   1.928       .  S
O860        C867   1.255       .  A
O860       Co865   1.994       .  S
O861        C868   1.263       .  A
O861       Co864   2.014       .  S
Co862       O866   2.032       .  S
Co863       O866   1.964       .  S
Co864       O866   2.095       .  S
Co865       O866   2.087       .  S
C867       C1913   1.428       .  S
C868       C1911   1.430       .  S
C869       C1909   1.390       .  S
C870       C1915   1.460       .  S
O871        C879   1.261       .  A
O871       Co891   2.013       .  S
O872        C880   1.259       .  A
O872       Co892   1.992       .  S
O873        C881   1.283       .  A
O873       Co893   2.053       .  S
O874        C882   1.280       .  A
O874       Co894   2.064       .  S
O875        C881   1.254       .  A
O875       Co892   1.900       .  S
O876        C882   1.258       .  A
O876       Co891   1.983       .  S
O877        C880   1.267       .  A
O877       Co894   2.030       .  S
O878        C879   1.236       .  A
O878       Co893   1.920       .  S
C879       C1903   1.418       .  S
C880       C1916   1.462       .  S
C881       C1901   1.414       .  S
C882       C1905   1.487       .  S
O883        C896   1.263       .  A
O883       Co891   2.008       .  S
O884        C897   1.268       .  A
O884       Co892   2.035       .  S
O885        C898   1.277       .  A
O885       Co893   2.038       .  S
O886        C899   1.250       .  A
O886       Co894   1.980       .  S
O887        C899   1.255       .  A
O887       Co892   1.993       .  S
O888        C898   1.271       .  A
O888       Co891   1.999       .  S
O889        C896   1.247       .  A
O889       Co894   1.948       .  S
O890        C897   1.247       .  A
O890       Co893   1.969       .  S
Co891       O895   2.135       .  S
Co892       O895   2.027       .  S
Co893       O895   2.096       .  S
Co894       O895   2.120       .  S
C896       C1979   1.439       .  S
C897       C2070   1.497       .  S
C898       C2221   1.506       .  S
C899       C1936   1.437       .  S
O900        C908   1.251       .  A
O900       Co920   1.952       .  S
O901        C909   1.275       .  A
O901       Co921   2.013       .  S
O902        C910   1.284       .  A
O902       Co922   2.089       .  S
O903        C911   1.267       .  A
O903       Co923   2.015       .  S
O904        C910   1.268       .  A
O904       Co921   1.878       .  S
O905        C911   1.253       .  A
O905       Co920   1.951       .  S
O906        C909   1.283       .  A
O906       Co923   2.065       .  S
O907        C908   1.259       .  A
O907       Co922   1.994       .  S
C908       C1900   1.405       .  S
C909       C1906   1.489       .  S
C910       C1898   1.406       .  S
C911       C1914   1.426       .  S
O912        C925   1.270       .  A
O912       Co920   2.002       .  S
O913        C926   1.308       .  A
O913       Co921   2.153       .  S
O914        C927   1.274       .  A
O914       Co922   1.990       .  S
O915        C928   1.260       .  A
O915       Co923   1.981       .  S
O916        C928   1.258       .  A
O916       Co921   1.982       .  S
O917        C927   1.281       .  A
O917       Co920   2.058       .  S
O918        C925   1.266       .  A
O918       Co923   1.967       .  S
O919        C926   1.265       .  A
O919       Co922   1.870       .  S
Co920       O924   2.019       .  S
Co921       O924   1.998       .  S
Co922       O924   1.999       .  S
Co923       O924   2.052       .  S
C925       C1895   1.424       .  S
C926       C2118   1.481       .  S
C927       C2149   1.510       .  S
C928       C1986   1.424       .  S
O929        C937   1.282       .  A
O929       Co949   2.043       .  S
O930        C938   1.255       .  A
O930       Co950   1.977       .  S
O931        C939   1.265       .  A
O931       Co951   1.912       .  S
O932        C940   1.264       .  A
O932       Co952   1.968       .  S
O933        C939   1.303       .  A
O933       Co950   2.125       .  S
O934        C940   1.270       .  A
O934       Co949   2.010       .  S
O935        C938   1.255       .  A
O935       Co952   1.976       .  S
O936        C937   1.281       .  A
O936       Co951   2.001       .  S
C937       C2330   1.501       .  S
C938       C1926   1.419       .  S
C939       C2153   1.494       .  S
C940       C1970   1.433       .  S
O941        C954   1.256       .  A
O941       Co949   1.971       .  S
O942        C955   1.259       .  A
O942       Co950   1.877       .  S
O943        C956   1.248       .  A
O943       Co951   1.972       .  S
O944        C957   1.280       .  A
O944       Co952   2.061       .  S
O945        C957   1.260       .  A
O945       Co950   1.976       .  S
O946        C956   1.242       .  A
O946       Co949   1.937       .  S
O947        C954   1.274       .  A
O947       Co952   2.054       .  S
O948        C955   1.293       .  A
O948       Co951   2.107       .  S
Co949       O953   2.016       .  S
Co950       O953   2.015       .  S
Co951       O953   2.057       .  S
Co952       O953   2.067       .  S
C954       C1893   1.465       .  S
C955       C1899   1.407       .  S
C956       C1910   1.397       .  S
C957       C1891   1.463       .  S
O958        C966   1.273       .  A
O958       Co978   2.014       .  S
O959        C967   1.273       .  A
O959       Co979   2.053       .  S
O960        C968   1.251       .  A
O960       Co980   1.865       .  S
O961        C969   1.245       .  A
O961       Co981   1.941       .  S
O962        C968   1.288       .  A
O962       Co979   2.092       .  S
O963        C969   1.270       .  A
O963       Co978   2.044       .  S
O964        C967   1.247       .  A
O964       Co981   1.959       .  S
O965        C966   1.259       .  A
O965       Co980   1.960       .  S
C966       C1904   1.417       .  S
C967       C1892   1.459       .  S
C968       C1897   1.402       .  S
C969       C1889   1.439       .  S
O970        C983   1.252       .  A
O970       Co978   1.933       .  S
O971        C984   1.273       .  A
O971       Co979   1.906       .  S
O972        C985   1.255       .  A
O972       Co980   2.001       .  S
O973        C986   1.277       .  A
O973       Co981   2.038       .  S
O974        C986   1.266       .  A
O974       Co979   1.976       .  S
O975        C985   1.259       .  A
O975       Co978   1.996       .  S
O976        C983   1.277       .  A
O976       Co981   2.041       .  S
O977        C984   1.299       .  A
O977       Co980   2.099       .  S
Co978       O982   2.068       .  S
Co979       O982   2.037       .  S
Co980       O982   1.991       .  S
Co981       O982   2.035       .  S
C983       C1887   1.425       .  S
C984       C2122   1.494       .  S
C985       C2226   1.490       .  S
C986       C1921   1.456       .  S
O987        C995   1.270       .  A
O987      Co1007   1.894       .  S
O988        C996   1.259       .  A
O988      Co1008   1.963       .  S
O989        C997   1.259       .  A
O989      Co1009   1.992       .  S
O990        C998   1.281       .  A
O990      Co1010   2.059       .  S
O991        C997   1.255       .  A
O991      Co1008   1.960       .  S
O992        C998   1.263       .  A
O992      Co1007   1.976       .  S
O993        C996   1.271       .  A
O993      Co1010   2.032       .  S
O994        C995   1.293       .  A
O994      Co1009   2.112       .  S
C995       C1912   1.431       .  S
C996       C1890   1.442       .  S
C997       C1902   1.413       .  S
C998       C1894   1.465       .  S
O999       C1012   1.271       .  A
O999      Co1007   2.027       .  S
O1000      C1013   1.279       .  A
O1000     Co1008   2.038       .  S
O1001      C1014   1.269       .  A
O1001     Co1009   1.889       .  S
O1002      C1015   1.260       .  A
O1002     Co1010   1.951       .  S
O1003      C1015   1.269       .  A
O1003     Co1008   1.999       .  S
O1004      C1014   1.295       .  A
O1004     Co1007   2.113       .  S
O1005      C1012   1.256       .  A
O1005     Co1010   1.977       .  S
O1006      C1013   1.280       .  A
O1006     Co1009   2.007       .  S
Co1007     O1011   2.003       .  S
Co1008     O1011   2.026       .  S
Co1009     O1011   2.000       .  S
Co1010     O1011   2.045       .  S
C1012      C1968   1.452       .  S
C1013      C2074   1.503       .  S
C1014      C2194   1.475       .  S
C1015      C1885   1.408       .  S
O1016      C1024   1.250       .  A
O1016     Co1036   1.943       .  S
O1017      C1025   1.272       .  A
O1017     Co1037   1.985       .  S
O1018      C1026   1.286       .  A
O1018     Co1038   2.094       .  S
O1019      C1027   1.269       .  A
O1019     Co1039   2.036       .  S
O1020      C1026   1.265       .  A
O1020     Co1037   1.897       .  S
O1021      C1027   1.245       .  A
O1021     Co1036   1.936       .  S
O1022      C1025   1.278       .  A
O1022     Co1039   2.040       .  S
O1023      C1024   1.270       .  A
O1023     Co1038   2.021       .  S
C1024      C1880   1.418       .  S
C1025      C1884   1.457       .  S
C1026      C1877   1.427       .  S
C1027      C1881   1.430       .  S
O1028      C1041   1.277       .  A
O1028     Co1036   2.027       .  S
O1029      C1042   1.290       .  A
O1029     Co1037   2.089       .  S
O1030      C1043   1.282       .  A
O1030     Co1038   2.014       .  S
O1031      C1044   1.253       .  A
O1031     Co1039   1.965       .  S
O1032      C1044   1.261       .  A
O1032     Co1037   1.999       .  S
O1033      C1043   1.271       .  A
O1033     Co1036   2.004       .  S
O1034      C1041   1.254       .  A
O1034     Co1039   1.931       .  S
O1035      C1042   1.282       .  A
O1035     Co1038   1.928       .  S
Co1036     O1040   1.994       .  S
Co1037     O1040   1.983       .  S
Co1038     O1040   2.042       .  S
Co1039     O1040   2.054       .  S
C1041      C1875   1.421       .  S
C1042      C2142   1.484       .  S
C1043      C2398   1.496       .  S
C1044      C1896   1.423       .  S
O1045      C1053   1.284       .  A
O1045     Co1065   2.045       .  S
O1046      C1054   1.251       .  A
O1046     Co1066   1.980       .  S
O1047      C1055   1.270       .  A
O1047     Co1067   1.892       .  S
O1048      C1056   1.262       .  A
O1048     Co1068   1.954       .  S
O1049      C1055   1.296       .  A
O1049     Co1066   2.109       .  S
O1050      C1056   1.271       .  A
O1050     Co1065   2.003       .  S
O1051      C1054   1.252       .  A
O1051     Co1068   1.973       .  S
O1052      C1053   1.276       .  A
O1052     Co1067   1.996       .  S
C1053      C2246   1.514       .  S
C1054      C1867   1.416       .  S
C1055      C2078   1.474       .  S
C1056      C1865   1.415       .  S
O1057      C1070   1.266       .  A
O1057     Co1065   1.986       .  S
O1058      C1071   1.257       .  A
O1058     Co1066   1.871       .  S
O1059      C1072   1.261       .  A
O1059     Co1067   1.989       .  S
O1060      C1073   1.285       .  A
O1060     Co1068   2.070       .  S
O1061      C1073   1.261       .  A
O1061     Co1066   1.962       .  S
O1062      C1072   1.261       .  A
O1062     Co1065   1.978       .  S
O1063      C1070   1.262       .  A
O1063     Co1068   1.999       .  S
O1064      C1071   1.293       .  A
O1064     Co1067   2.114       .  S
Co1065     O1069   2.017       .  S
Co1066     O1069   1.988       .  S
Co1067     O1069   2.009       .  S
Co1068     O1069   2.044       .  S
C1070      C1882   1.436       .  S
C1071      C1870   1.404       .  S
C1072      C1872   1.423       .  S
C1073      C1873   1.455       .  S
O1074      C1082   1.303       .  A
O1074     Co1094   2.139       .  S
O1075      C1083   1.272       .  A
O1075     Co1095   2.014       .  S
O1076      C1084   1.283       .  A
O1076     Co1096   2.010       .  S
O1077      C1085   1.260       .  A
O1077     Co1097   1.975       .  S
O1078      C1084   1.279       .  A
O1078     Co1095   2.035       .  S
O1079      C1085   1.268       .  A
O1079     Co1094   2.010       .  S
O1080      C1083   1.258       .  A
O1080     Co1097   1.944       .  S
O1081      C1082   1.273       .  A
O1081     Co1096   1.900       .  S
C1082      C2358   1.500       .  S
C1083      C1908   1.418       .  S
C1084      C2318   1.510       .  S
C1085      C1859   1.439       .  S
O1086      C1099   1.269       .  A
O1086     Co1094   1.996       .  S
O1087      C1100   1.247       .  A
O1087     Co1095   1.942       .  S
O1088      C1101   1.288       .  A
O1088     Co1096   2.099       .  S
O1089      C1102   1.276       .  A
O1089     Co1097   2.059       .  S
O1090      C1102   1.252       .  A
O1090     Co1095   1.959       .  S
O1091      C1101   1.271       .  A
O1091     Co1094   1.892       .  S
O1092      C1099   1.272       .  A
O1092     Co1097   2.024       .  S
O1093      C1100   1.260       .  A
O1093     Co1096   2.004       .  S
Co1094     O1098   2.012       .  S
Co1095     O1098   2.012       .  S
Co1096     O1098   2.034       .  S
Co1097     O1098   2.061       .  S
C1099      C1874   1.457       .  S
C1100      C1864   1.408       .  S
C1101      C1861   1.423       .  S
C1102      C1883   1.455       .  S
O1103      C1111   1.245       .  A
O1103     Co1123   1.945       .  S
O1104      C1112   1.263       .  A
O1104     Co1124   1.968       .  S
O1105      C1113   1.295       .  A
O1105     Co1125   2.109       .  S
O1106      C1114   1.272       .  A
O1106     Co1126   2.033       .  S
O1107      C1113   1.268       .  A
O1107     Co1124   1.885       .  S
O1108      C1114   1.253       .  A
O1108     Co1123   1.947       .  S
O1109      C1112   1.271       .  A
O1109     Co1126   2.020       .  S
O1110      C1111   1.257       .  A
O1110     Co1125   2.010       .  S
C1111      C1879   1.420       .  S
C1112      C1855   1.432       .  S
C1113      C1871   1.423       .  S
C1114      C1858   1.431       .  S
O1115      C1128   1.267       .  A
O1115     Co1123   1.998       .  S
O1116      C1129   1.298       .  A
O1116     Co1124   2.110       .  S
O1117      C1130   1.278       .  A
O1117     Co1125   1.993       .  S
O1118      C1131   1.252       .  A
O1118     Co1126   1.956       .  S
O1119      C1131   1.267       .  A
O1119     Co1124   2.019       .  S
O1120      C1130   1.282       .  A
O1120     Co1123   2.038       .  S
O1121      C1128   1.252       .  A
O1121     Co1126   1.930       .  S
O1122      C1129   1.268       .  A
O1122     Co1125   1.880       .  S
Co1123     O1127   2.010       .  S
Co1124     O1127   1.997       .  S
Co1125     O1127   2.006       .  S
Co1126     O1127   2.037       .  S
C1128      C1854   1.397       .  S
C1129      C2249   1.476       .  S
C1130      C2402   1.501       .  S
C1131      C1888   1.431       .  S
O1132      C1140   1.247       .  A
O1132     Co1152   1.943       .  S
O1133      C1141   1.268       .  A
O1133     Co1153   1.967       .  S
O1134      C1142   1.287       .  A
O1134     Co1154   2.094       .  S
O1135      C1143   1.274       .  A
O1135     Co1155   2.025       .  S
O1136      C1142   1.269       .  A
O1136     Co1153   1.900       .  S
O1137      C1143   1.259       .  A
O1137     Co1152   1.951       .  S
O1138      C1141   1.274       .  A
O1138     Co1155   2.020       .  S
O1139      C1140   1.259       .  A
O1139     Co1154   2.004       .  S
C1140      C1863   1.408       .  S
C1141      C1857   1.433       .  S
C1142      C1878   1.427       .  S
C1143      C1852   1.427       .  S
O1144      C1157   1.262       .  A
O1144     Co1152   1.976       .  S
O1145      C1158   1.285       .  A
O1145     Co1153   2.085       .  S
O1146      C1159   1.272       .  A
O1146     Co1154   1.977       .  S
O1147      C1160   1.262       .  A
O1147     Co1155   1.976       .  S
O1148      C1160   1.266       .  A
O1148     Co1153   1.998       .  S
O1149      C1159   1.286       .  A
O1149     Co1152   2.051       .  S
O1150      C1157   1.262       .  A
O1150     Co1155   1.955       .  S
O1151      C1158   1.273       .  A
O1151     Co1154   1.886       .  S
Co1152     O1156   1.993       .  S
Co1153     O1156   1.969       .  S
Co1154     O1156   2.008       .  S
Co1155     O1156   2.028       .  S
C1157      C1848   1.401       .  S
C1158      C2146   1.454       .  S
C1159      C2322   1.498       .  S
C1160      C1849   1.426       .  S
O1161      C1169   1.293       .  A
O1161     Co1181   2.113       .  S
O1162      C1170   1.267       .  A
O1162     Co1182   1.993       .  S
O1163      C1171   1.276       .  A
O1163     Co1183   1.983       .  S
O1164      C1172   1.261       .  A
O1164     Co1184   1.975       .  S
O1165      C1171   1.278       .  A
O1165     Co1182   2.022       .  S
O1166      C1172   1.265       .  A
O1166     Co1181   1.995       .  S
O1167      C1170   1.261       .  A
O1167     Co1184   1.951       .  S
O1168      C1169   1.272       .  A
O1168     Co1183   1.889       .  S
C1169      C2361   1.469       .  S
C1170      C1886   1.410       .  S
C1171      C2082   1.475       .  S
C1172      C1845   1.426       .  S
O1173      C1186   1.267       .  A
O1173     Co1181   1.964       .  S
O1174      C1187   1.255       .  A
O1174     Co1182   1.957       .  S
O1175      C1188   1.287       .  A
O1175     Co1183   2.106       .  S
O1176      C1189   1.274       .  A
O1176     Co1184   2.029       .  S
O1177      C1189   1.259       .  A
O1177     Co1182   1.954       .  S
O1178      C1188   1.270       .  A
O1178     Co1181   1.897       .  S
O1179      C1186   1.274       .  A
O1179     Co1184   2.018       .  S
O1180      C1187   1.261       .  A
O1180     Co1183   1.987       .  S
Co1181     O1185   1.979       .  S
Co1182     O1185   2.004       .  S
Co1183     O1185   1.989       .  S
Co1184     O1185   2.033       .  S
C1186      C1851   1.428       .  S
C1187      C1869   1.404       .  S
C1188      C1862   1.423       .  S
C1189      C1856   1.431       .  S
O1190      C1198   1.285       .  A
O1190     Co1210   2.057       .  S
O1191      C1199   1.260       .  A
O1191     Co1211   1.985       .  S
O1192      C1200   1.237       .  A
O1192     Co1212   1.919       .  S
O1193      C1201   1.256       .  A
O1193     Co1213   1.939       .  S
O1194      C1200   1.277       .  A
O1194     Co1211   2.075       .  S
O1195      C1201   1.265       .  A
O1195     Co1210   1.991       .  S
O1196      C1199   1.263       .  A
O1196     Co1213   1.988       .  S
O1197      C1198   1.262       .  A
O1197     Co1212   1.953       .  S
C1198      C2390   1.491       .  S
C1199      C1941   1.430       .  S
C1200      C2125   1.487       .  S
C1201      C1835   1.401       .  S
O1202      C1215   1.244       .  A
O1202     Co1210   1.943       .  S
O1203      C1216   1.263       .  A
O1203     Co1211   1.841       .  S
O1204      C1217   1.243       .  A
O1204     Co1212   1.979       .  S
O1205      C1218   1.266       .  A
O1205     Co1213   2.008       .  S
O1206      C1218   1.268       .  A
O1206     Co1211   1.993       .  S
O1207      C1217   1.245       .  A
O1207     Co1210   1.955       .  S
O1208      C1215   1.276       .  A
O1208     Co1213   2.068       .  S
O1209      C1216   1.297       .  A
O1209     Co1212   2.072       .  S
Co1210     O1214   2.050       .  S
Co1211     O1214   1.955       .  S
Co1212     O1214   2.064       .  S
Co1213     O1214   2.074       .  S
C1215      C1841   1.451       .  S
C1216      C1840   1.386       .  S
C1217      C1838   1.417       .  S
C1218      C1843   1.443       .  S
O1219      C1227   1.263       .  A
O1219     Co1239   1.876       .  S
O1220      C1228   1.250       .  A
O1220     Co1240   1.949       .  S
O1221      C1229   1.260       .  A
O1221     Co1241   2.000       .  S
O1222      C1230   1.273       .  A
O1222     Co1242   2.033       .  S
O1223      C1229   1.251       .  A
O1223     Co1240   1.959       .  S
O1224      C1230   1.267       .  A
O1224     Co1239   1.988       .  S
O1225      C1228   1.274       .  A
O1225     Co1242   2.045       .  S
O1226      C1227   1.293       .  A
O1226     Co1241   2.109       .  S
C1227      C1827   1.412       .  S
C1228      C1844   1.439       .  S
C1229      C1826   1.419       .  S
C1230      C1833   1.454       .  S
O1231      C1244   1.259       .  A
O1231     Co1239   1.995       .  S
O1232      C1245   1.279       .  A
O1232     Co1240   2.040       .  S
O1233      C1246   1.271       .  A
O1233     Co1241   1.897       .  S
O1234      C1247   1.258       .  A
O1234     Co1242   1.939       .  S
O1235      C1247   1.272       .  A
O1235     Co1240   2.011       .  S
O1236      C1246   1.300       .  A
O1236     Co1239   2.116       .  S
O1237      C1244   1.261       .  A
O1237     Co1242   1.991       .  S
O1238      C1245   1.281       .  A
O1238     Co1241   2.006       .  S
Co1239     O1243   1.992       .  S
Co1240     O1243   2.016       .  S
Co1241     O1243   2.021       .  S
Co1242     O1243   2.064       .  S
C1244      C1860   1.439       .  S
C1245      C1830   1.510       .  S
C1246      C2350   1.481       .  S
C1247      C1952   1.411       .  S
O1248      C1256   1.273       .  A
O1248     Co1268   1.908       .  S
O1249      C1257   1.256       .  A
O1249     Co1269   1.964       .  S
O1250      C1258   1.263       .  A
O1250     Co1270   1.996       .  S
O1251      C1259   1.272       .  A
O1251     Co1271   2.021       .  S
O1252      C1258   1.252       .  A
O1252     Co1269   1.947       .  S
O1253      C1259   1.274       .  A
O1253     Co1268   1.997       .  S
O1254      C1257   1.276       .  A
O1254     Co1271   2.050       .  S
O1255      C1256   1.282       .  A
O1255     Co1270   2.089       .  S
C1256      C1823   1.427       .  S
C1257      C1834   1.453       .  S
C1258      C1821   1.401       .  S
C1259      C1842   1.455       .  S
O1260      C1273   1.267       .  A
O1260     Co1268   2.003       .  S
O1261      C1274   1.282       .  A
O1261     Co1269   2.056       .  S
O1262      C1275   1.274       .  A
O1262     Co1270   1.901       .  S
O1263      C1276   1.260       .  A
O1263     Co1271   1.949       .  S
O1264      C1276   1.271       .  A
O1264     Co1269   2.007       .  S
O1265      C1275   1.296       .  A
O1265     Co1268   2.125       .  S
O1266      C1273   1.264       .  A
O1266     Co1271   1.984       .  S
O1267      C1274   1.279       .  A
O1267     Co1270   2.001       .  S
Co1268     O1272   2.003       .  S
Co1269     O1272   2.021       .  S
Co1270     O1272   2.009       .  S
Co1271     O1272   2.045       .  S
C1273      C1819   1.436       .  S
C1274      C2085   1.515       .  S
C1275      C2182   1.485       .  S
C1276      C1868   1.416       .  S
O1277      C1285   1.253       .  A
O1277     Co1297   1.969       .  S
O1278      C1286   1.267       .  A
O1278     Co1298   1.983       .  S
O1279      C1287   1.296       .  A
O1279     Co1299   2.120       .  S
O1280      C1288   1.277       .  A
O1280     Co1300   2.055       .  S
O1281      C1287   1.256       .  A
O1281     Co1298   1.862       .  S
O1282      C1288   1.256       .  A
O1282     Co1297   1.963       .  S
O1283      C1286   1.275       .  A
O1283     Co1300   2.028       .  S
O1284      C1285   1.253       .  A
O1284     Co1299   1.974       .  S
C1285      C1828   1.411       .  S
C1286      C1815   1.447       .  S
C1287      C1822   1.402       .  S
C1288      C1818   1.456       .  S
O1289      C1302   1.271       .  A
O1289     Co1297   2.009       .  S
O1290      C1303   1.307       .  A
O1290     Co1298   2.147       .  S
O1291      C1304   1.276       .  A
O1291     Co1299   1.991       .  S
O1292      C1305   1.262       .  A
O1292     Co1300   2.002       .  S
O1293      C1305   1.250       .  A
O1293     Co1298   1.970       .  S
O1294      C1304   1.281       .  A
O1294     Co1297   2.042       .  S
O1295      C1302   1.260       .  A
O1295     Co1300   1.951       .  S
O1296      C1303   1.261       .  A
O1296     Co1299   1.880       .  S
Co1297     O1301   2.028       .  S
Co1298     O1301   1.995       .  S
Co1299     O1301   2.003       .  S
Co1300     O1301   2.055       .  S
C1302      C1813   1.419       .  S
C1303      C2090   1.484       .  S
C1304      C2354   1.502       .  S
C1305      C1917   1.432       .  S
O1306      C1314   1.290       .  A
O1306     Co1326   2.071       .  S
O1307      C1315   1.271       .  A
O1307     Co1327   2.030       .  S
O1308      C1316   1.272       .  A
O1308     Co1328   1.906       .  S
O1309      C1317   1.265       .  A
O1309     Co1329   1.962       .  S
O1310      C1316   1.295       .  A
O1310     Co1327   2.098       .  S
O1311      C1317   1.260       .  A
O1311     Co1326   1.968       .  S
O1312      C1315   1.252       .  A
O1312     Co1329   1.954       .  S
O1313      C1314   1.271       .  A
O1313     Co1328   1.972       .  S
C1314      C2394   1.506       .  S
C1315      C1919   1.437       .  S
C1316      C2186   1.480       .  S
C1317      C1853   1.400       .  S
O1318      C1331   1.264       .  A
O1318     Co1326   1.978       .  S
O1319      C1332   1.273       .  A
O1319     Co1327   1.916       .  S
O1320      C1333   1.265       .  A
O1320     Co1328   2.021       .  S
O1321      C1334   1.283       .  A
O1321     Co1329   2.051       .  S
O1322      C1334   1.265       .  A
O1322     Co1327   1.962       .  S
O1323      C1333   1.248       .  A
O1323     Co1326   1.942       .  S
O1324      C1331   1.266       .  A
O1324     Co1329   2.008       .  S
O1325      C1332   1.279       .  A
O1325     Co1328   2.066       .  S
Co1326     O1330   2.002       .  S
Co1327     O1330   2.006       .  S
Co1328     O1330   2.012       .  S
Co1329     O1330   2.029       .  S
C1331      C1811   1.435       .  S
C1332      C1824   1.426       .  S
C1333      C1837   1.413       .  S
C1334      C1816   1.446       .  S
O1335      C1343   1.247       .  A
O1335     Co1355   1.948       .  S
O1336      C1344   1.267       .  A
O1336     Co1356   1.983       .  S
O1337      C1345   1.298       .  A
O1337     Co1357   2.147       .  S
O1338      C1346   1.270       .  A
O1338     Co1358   2.028       .  S
O1339      C1345   1.257       .  A
O1339     Co1356   1.872       .  S
O1340      C1346   1.253       .  A
O1340     Co1355   1.950       .  S
O1341      C1344   1.278       .  A
O1341     Co1358   2.049       .  S
O1342      C1343   1.250       .  A
O1342     Co1357   1.958       .  S
C1343      C1839   1.384       .  S
C1344      C1817   1.458       .  S
C1345      C1825   1.420       .  S
C1346      C1812   1.432       .  S
O1347      C1360   1.272       .  A
O1347     Co1355   2.009       .  S
O1348      C1361   1.304       .  A
O1348     Co1356   2.142       .  S
O1349      C1362   1.279       .  A
O1349     Co1357   2.005       .  S
O1350      C1363   1.258       .  A
O1350     Co1358   1.978       .  S
O1351      C1363   1.250       .  A
O1351     Co1356   1.958       .  S
O1352      C1362   1.283       .  A
O1352     Co1355   2.055       .  S
O1353      C1360   1.263       .  A
O1353     Co1358   1.962       .  S
O1354      C1361   1.266       .  A
O1354     Co1357   1.867       .  S
Co1355     O1359   2.011       .  S
Co1356     O1359   1.991       .  S
Co1357     O1359   2.008       .  S
Co1358     O1359   2.054       .  S
C1360      C1850   1.426       .  S
C1361      C1807   1.475       .  S
C1362      C2130   1.515       .  S
C1363      C1805   1.407       .  S
O1364      C1372   1.304       .  A
O1364     Co1384   2.025       .  S
O1365      C1373   1.270       .  A
O1365     Co1385   2.002       .  S
O1366      C1374   1.279       .  A
O1366     Co1386   2.007       .  S
O1367      C1375   1.256       .  A
O1367     Co1387   1.988       .  S
O1368      C1374   1.277       .  A
O1368     Co1385   2.034       .  S
O1369      C1375   1.245       .  A
O1369     Co1384   1.957       .  S
O1370      C1373   1.267       .  A
O1370     Co1387   1.971       .  S
O1371      C1372   1.299       .  A
O1371     Co1386   1.989       .  S
C1372      C2405   1.487       .  S
C1373      C1988   1.426       .  S
C1374      C2302   1.502       .  S
C1375      C1876   1.420       .  S
O1376      C1389   1.279       .  A
O1376     Co1384   2.026       .  S
O1377      C1390   1.262       .  A
O1377     Co1385   1.957       .  S
O1378      C1391   1.246       .  A
O1378     Co1386   2.047       .  S
O1379      C1392   1.260       .  A
O1379     Co1387   1.986       .  S
O1380      C1392   1.271       .  A
O1380     Co1385   1.993       .  S
O1381      C1391   1.223       .  A
O1381     Co1384   1.967       .  S
O1382      C1389   1.266       .  A
O1382     Co1387   1.989       .  S
O1383      C1390   1.272       .  A
O1383     Co1386   2.002       .  S
Co1384     O1388   1.979       .  S
Co1385     O1388   2.011       .  S
Co1386     O1388   2.089       .  S
Co1387     O1388   2.060       .  S
C1389      C1803   1.461       .  S
C1390      C1799   1.408       .  S
C1391      C1798   1.419       .  S
C1392      C1801   1.433       .  S
O1393      C1401   1.275       .  A
O1393     Co1413   2.019       .  S
O1394      C1402   1.258       .  A
O1394     Co1414   1.982       .  S
O1395      C1403   1.278       .  A
O1395     Co1415   1.926       .  S
O1396      C1404   1.258       .  A
O1396     Co1416   1.945       .  S
O1397      C1403   1.296       .  A
O1397     Co1414   2.122       .  S
O1398      C1404   1.276       .  A
O1398     Co1413   2.023       .  S
O1399      C1402   1.257       .  A
O1399     Co1416   1.971       .  S
O1400      C1401   1.285       .  A
O1400     Co1415   2.018       .  S
C1401      C2278   1.509       .  S
C1402      C1866   1.416       .  S
C1403      C2238   1.496       .  S
C1404      C1789   1.427       .  S
O1405      C1418   1.253       .  A
O1405     Co1413   1.960       .  S
O1406      C1419   1.268       .  A
O1406     Co1414   1.890       .  S
O1407      C1420   1.264       .  A
O1407     Co1415   1.986       .  S
O1408      C1421   1.278       .  A
O1408     Co1416   2.045       .  S
O1409      C1421   1.270       .  A
O1409     Co1414   1.986       .  S
O1410      C1420   1.258       .  A
O1410     Co1413   1.961       .  S
O1411      C1418   1.273       .  A
O1411     Co1416   2.043       .  S
O1412      C1419   1.284       .  A
O1412     Co1415   2.096       .  S
Co1413     O1417   2.014       .  S
Co1414     O1417   2.003       .  S
Co1415     O1417   2.022       .  S
Co1416     O1417   2.056       .  S
C1418      C1795   1.447       .  S
C1419      C1794   1.410       .  S
C1420      C1792   1.407       .  S
C1421      C1804   1.462       .  S
O1422      C1430   1.261       .  A
O1422     Co1442   1.883       .  S
O1423      C1431   1.241       .  A
O1423     Co1443   1.925       .  S
O1424      C1432   1.263       .  A
O1424     Co1444   2.012       .  S
O1425      C1433   1.277       .  A
O1425     Co1445   2.040       .  S
O1426      C1432   1.244       .  A
O1426     Co1443   1.941       .  S
O1427      C1433   1.267       .  A
O1427     Co1442   1.975       .  S
O1428      C1431   1.270       .  A
O1428     Co1445   2.041       .  S
O1429      C1430   1.296       .  A
O1429     Co1444   2.129       .  S
C1430      C1788   1.428       .  S
C1431      C1802   1.424       .  S
C1432      C1786   1.411       .  S
C1433      C1796   1.449       .  S
O1434      C1447   1.258       .  A
O1434     Co1442   1.985       .  S
O1435      C1448   1.276       .  A
O1435     Co1443   2.019       .  S
O1436      C1449   1.274       .  A
O1436     Co1444   1.892       .  S
O1437      C1450   1.256       .  A
O1437     Co1445   1.946       .  S
O1438      C1450   1.278       .  A
O1438     Co1443   2.038       .  S
O1439      C1449   1.299       .  A
O1439     Co1442   2.118       .  S
O1440      C1447   1.253       .  A
O1440     Co1445   1.965       .  S
O1441      C1448   1.279       .  A
O1441     Co1444   2.007       .  S
Co1442     O1446   1.989       .  S
Co1443     O1446   1.994       .  S
Co1444     O1446   2.021       .  S
Co1445     O1446   2.056       .  S
C1447      C1783   1.415       .  S
C1448      C2342   1.506       .  S
C1449      C2366   1.483       .  S
C1450      C1995   1.433       .  S
O1451      C1459   1.279       .  A
O1451     Co1471   2.028       .  S
O1452      C1460   1.255       .  A
O1452     Co1472   1.982       .  S
O1453      C1461   1.268       .  A
O1453     Co1473   1.891       .  S
O1454      C1462   1.258       .  A
O1454     Co1474   1.938       .  S
O1455      C1461   1.305       .  A
O1455     Co1472   2.129       .  S
O1456      C1462   1.269       .  A
O1456     Co1471   1.998       .  S
O1457      C1460   1.254       .  A
O1457     Co1474   1.977       .  S
O1458      C1459   1.280       .  A
O1458     Co1473   2.009       .  S
C1459      C2346   1.496       .  S
C1460      C1778   1.424       .  S
C1461      C2306   1.483       .  S
C1462      C1847   1.400       .  S
O1463      C1476   1.251       .  A
O1463     Co1471   1.950       .  S
O1464      C1477   1.258       .  A
O1464     Co1472   1.870       .  S
O1465      C1478   1.257       .  A
O1465     Co1473   1.997       .  S
O1466      C1479   1.276       .  A
O1466     Co1474   2.034       .  S
O1467      C1479   1.265       .  A
O1467     Co1472   1.976       .  S
O1468      C1478   1.245       .  A
O1468     Co1471   1.945       .  S
O1469      C1476   1.271       .  A
O1469     Co1474   2.043       .  S
O1470      C1477   1.297       .  A
O1470     Co1473   2.117       .  S
Co1471     O1475   2.000       .  S
Co1472     O1475   1.986       .  S
Co1473     O1475   2.024       .  S
Co1474     O1475   2.055       .  S
C1476      C1781   1.438       .  S
C1477      C1800   1.409       .  S
C1478      C1785   1.415       .  S
C1479      C1779   1.447       .  S
O1480      C1488   1.257       .  A
O1480     Co1500   1.971       .  S
O1481      C1489   1.261       .  A
O1481     Co1501   1.962       .  S
O1482      C1490   1.292       .  A
O1482     Co1502   2.112       .  S
O1483      C1491   1.267       .  A
O1483     Co1503   2.017       .  S
O1484      C1490   1.259       .  A
O1484     Co1501   1.873       .  S
O1485      C1491   1.262       .  A
O1485     Co1500   1.976       .  S
O1486      C1489   1.280       .  A
O1486     Co1503   2.054       .  S
O1487      C1488   1.264       .  A
O1487     Co1502   2.004       .  S
C1488      C1787   1.428       .  S
C1489      C1775   1.447       .  S
C1490      C1791   1.407       .  S
C1491      C1782   1.442       .  S
O1492      C1505   1.271       .  A
O1492     Co1500   2.008       .  S
O1493      C1506   1.296       .  A
O1493     Co1501   2.113       .  S
O1494      C1507   1.274       .  A
O1494     Co1502   1.988       .  S
O1495      C1508   1.258       .  A
O1495     Co1503   1.980       .  S
O1496      C1508   1.255       .  A
O1496     Co1501   1.984       .  S
O1497      C1507   1.284       .  A
O1497     Co1500   2.042       .  S
O1498      C1505   1.264       .  A
O1498     Co1503   1.963       .  S
O1499      C1506   1.271       .  A
O1499     Co1502   1.902       .  S
Co1500     O1504   2.018       .  S
Co1501     O1504   1.992       .  S
Co1502     O1504   2.015       .  S
Co1503     O1504   2.053       .  S
C1505      C1846   1.426       .  S
C1506      C2282   1.486       .  S
C1507      C2370   1.506       .  S
C1508      C1966   1.424       .  S
O1509      C1517   1.281       .  A
O1509     Co1529   2.045       .  S
O1510      C1518   1.261       .  A
O1510     Co1530   1.998       .  S
O1511      C1519   1.272       .  A
O1511     Co1531   1.881       .  S
O1512      C1520   1.263       .  A
O1512     Co1532   1.947       .  S
O1513      C1519   1.304       .  A
O1513     Co1530   2.132       .  S
O1514      C1520   1.270       .  A
O1514     Co1529   1.995       .  S
O1515      C1518   1.261       .  A
O1515     Co1532   1.989       .  S
O1516      C1517   1.272       .  A
O1516     Co1531   1.994       .  S
C1517      C2410   1.507       .  S
C1518      C1974   1.440       .  S
C1519      C2241   1.478       .  S
C1520      C1773   1.405       .  S
O1521      C1534   1.254       .  A
O1521     Co1529   1.961       .  S
O1522      C1535   1.266       .  A
O1522     Co1530   1.893       .  S
O1523      C1536   1.272       .  A
O1523     Co1531   2.023       .  S
O1524      C1537   1.278       .  A
O1524     Co1532   2.032       .  S
O1525      C1537   1.270       .  A
O1525     Co1530   1.980       .  S
O1526      C1536   1.250       .  A
O1526     Co1529   1.945       .  S
O1527      C1534   1.271       .  A
O1527     Co1532   2.040       .  S
O1528      C1535   1.281       .  A
O1528     Co1531   2.084       .  S
Co1529     O1533   2.009       .  S
Co1530     O1533   1.993       .  S
Co1531     O1533   2.005       .  S
Co1532     O1533   2.046       .  S
C1534      C1780   1.445       .  S
C1535      C1793   1.410       .  S
C1536      C1797   1.420       .  S
C1537      C1776   1.448       .  S
O1538      C1546   1.251       .  A
O1538     Co1558   1.948       .  S
O1539      C1547   1.263       .  A
O1539     Co1559   1.969       .  S
O1540      C1548   1.289       .  A
O1540     Co1560   2.103       .  S
O1541      C1549   1.268       .  A
O1541     Co1561   2.026       .  S
O1542      C1548   1.267       .  A
O1542     Co1559   1.893       .  S
O1543      C1549   1.258       .  A
O1543     Co1558   1.963       .  S
O1544      C1547   1.278       .  A
O1544     Co1561   2.040       .  S
O1545      C1546   1.267       .  A
O1545     Co1560   2.018       .  S
C1546      C1768   1.418       .  S
C1547      C1772   1.447       .  S
C1548      C1765   1.426       .  S
C1549      C1770   1.438       .  S
O1550      C1563   1.270       .  A
O1550     Co1558   2.002       .  S
O1551      C1564   1.300       .  A
O1551     Co1559   2.122       .  S
O1552      C1565   1.279       .  A
O1552     Co1560   1.984       .  S
O1553      C1566   1.261       .  A
O1553     Co1561   1.979       .  S
O1554      C1566   1.266       .  A
O1554     Co1559   2.004       .  S
O1555      C1565   1.275       .  A
O1555     Co1558   2.008       .  S
O1556      C1563   1.270       .  A
O1556     Co1561   1.977       .  S
O1557      C1564   1.275       .  A
O1557     Co1560   1.932       .  S
Co1558     O1562   1.997       .  S
Co1559     O1562   1.993       .  S
Co1560     O1562   2.029       .  S
Co1561     O1562   2.049       .  S
C1563      C1790   1.428       .  S
C1564      C2173   1.505       .  S
C1565      C2269   1.472       .  S
C1566      C1820   1.435       .  S
O1567      C1575   1.279       .  A
O1567     Co1587   2.055       .  S
O1568      C1576   1.250       .  A
O1568     Co1588   1.970       .  S
O1569      C1577   1.238       .  A
O1569     Co1589   1.928       .  S
O1570      C1578   1.261       .  A
O1570     Co1590   1.945       .  S
O1571      C1577   1.275       .  A
O1571     Co1588   2.100       .  S
O1572      C1578   1.271       .  A
O1572     Co1587   2.007       .  S
O1573      C1576   1.249       .  A
O1573     Co1590   1.947       .  S
O1574      C1575   1.249       .  A
O1574     Co1589   1.919       .  S
C1575      C2374   1.480       .  S
C1576      C2030   1.390       .  S
C1577      C1759   1.497       .  S
C1578      C1784   1.415       .  S
O1579      C1592   1.248       .  A
O1579     Co1587   1.963       .  S
O1580      C1593   1.252       .  A
O1580     Co1588   1.843       .  S
O1581      C1594   1.248       .  A
O1581     Co1589   1.927       .  S
O1582      C1595   1.280       .  A
O1582     Co1590   2.063       .  S
O1583      C1595   1.261       .  A
O1583     Co1588   1.960       .  S
O1584      C1594   1.254       .  A
O1584     Co1587   1.965       .  S
O1585      C1592   1.259       .  A
O1585     Co1590   2.012       .  S
O1586      C1593   1.289       .  A
O1586     Co1589   2.069       .  S
Co1587     O1591   2.076       .  S
Co1588     O1591   1.993       .  S
Co1589     O1591   2.037       .  S
Co1590     O1591   2.083       .  S
C1592      C1769   1.438       .  S
C1593      C1755   1.380       .  S
C1594      C1758   1.396       .  S
C1595      C1764   1.453       .  S
O1596      C1604   1.261       .  A
O1596     Co1616   1.832       .  S
O1597      C1605   1.266       .  A
O1597     Co1617   1.984       .  S
O1598      C1606   1.272       .  A
O1598     Co1618   1.906       .  S
O1599      C1607   1.269       .  A
O1599     Co1619   2.026       .  S
O1600      C1606   1.291       .  A
O1600     Co1617   2.059       .  S
O1601      C1607   1.261       .  A
O1601     Co1616   1.977       .  S
O1602      C1605   1.270       .  A
O1602     Co1619   2.014       .  S
O1603      C1604   1.304       .  A
O1603     Co1618   2.120       .  S
C1604      C1751   1.396       .  S
C1605      C1763   1.455       .  S
C1606      C1753   1.426       .  S
C1607      C1771   1.447       .  S
O1608      C1621   1.257       .  A
O1608     Co1616   1.971       .  S
O1609      C1622   1.283       .  A
O1609     Co1617   1.919       .  S
O1610      C1623   1.261       .  A
O1610     Co1618   1.968       .  S
O1611      C1624   1.254       .  A
O1611     Co1619   1.950       .  S
O1612      C1624   1.263       .  A
O1612     Co1617   2.009       .  S
O1613      C1623   1.271       .  A
O1613     Co1616   2.033       .  S
O1614      C1621   1.257       .  A
O1614     Co1619   1.957       .  S
O1615      C1622   1.302       .  A
O1615     Co1618   2.087       .  S
Co1616     O1620   1.904       .  S
Co1617     O1620   2.017       .  S
Co1618     O1620   2.046       .  S
Co1619     O1620   2.059       .  S
C1621      C1836   1.402       .  S
C1622      C2294   1.491       .  S
C1623      C2381   1.490       .  S
C1624      C2052   1.426       .  S
O1625      C1633   1.305       .  A
O1625     Co1645   2.135       .  S
O1626      C1634   1.271       .  A
O1626     Co1646   2.017       .  S
O1627      C1635   1.279       .  A
O1627     Co1647   1.991       .  S
O1628      C1636   1.255       .  A
O1628     Co1648   1.971       .  S
O1629      C1635   1.282       .  A
O1629     Co1646   2.034       .  S
O1630      C1636   1.255       .  A
O1630     Co1645   1.982       .  S
O1631      C1634   1.254       .  A
O1631     Co1648   1.935       .  S
O1632      C1633   1.267       .  A
O1632     Co1647   1.914       .  S
C1633      C2378   1.505       .  S
C1634      C2010   1.414       .  S
C1635      C2273   1.502       .  S
C1636      C1814   1.419       .  S
O1637      C1650   1.266       .  A
O1637     Co1645   1.993       .  S
O1638      C1651   1.246       .  A
O1638     Co1646   1.950       .  S
O1639      C1652   1.292       .  A
O1639     Co1647   2.098       .  S
O1640      C1653   1.272       .  A
O1640     Co1648   2.046       .  S
O1641      C1653   1.249       .  A
O1641     Co1646   1.945       .  S
O1642      C1652   1.263       .  A
O1642     Co1645   1.868       .  S
O1643      C1650   1.272       .  A
O1643     Co1648   2.030       .  S
O1644      C1651   1.257       .  A
O1644     Co1647   2.008       .  S
Co1645     O1649   1.997       .  S
Co1646     O1649   2.012       .  S
Co1647     O1649   2.027       .  S
Co1648     O1649   2.062       .  S
C1650      C1747   1.453       .  S
C1651      C1767   1.421       .  S
C1652      C1757   1.401       .  S
C1653      C1749   1.435       .  S
O1654      C1662   1.302       .  A
O1654     Co1674   2.126       .  S
O1655      C1663   1.271       .  A
O1655     Co1675   2.007       .  S
O1656      C1664   1.282       .  A
O1656     Co1676   2.003       .  S
O1657      C1665   1.252       .  A
O1657     Co1677   1.974       .  S
O1658      C1664   1.281       .  A
O1658     Co1675   2.036       .  S
O1659      C1665   1.256       .  A
O1659     Co1674   1.985       .  S
O1660      C1663   1.254       .  A
O1660     Co1677   1.929       .  S
O1661      C1662   1.261       .  A
O1661     Co1676   1.881       .  S
C1662      C2297   1.478       .  S
C1663      C1806   1.406       .  S
C1664      C1742   1.505       .  S
C1665      C1777   1.425       .  S
O1666      C1679   1.259       .  A
O1666     Co1674   1.967       .  S
O1667      C1680   1.249       .  A
O1667     Co1675   1.956       .  S
O1668      C1681   1.297       .  A
O1668     Co1676   2.138       .  S
O1669      C1682   1.274       .  A
O1669     Co1677   2.049       .  S
O1670      C1682   1.254       .  A
O1670     Co1675   1.960       .  S
O1671      C1681   1.261       .  A
O1671     Co1674   1.886       .  S
O1672      C1679   1.275       .  A
O1672     Co1677   2.030       .  S
O1673      C1680   1.244       .  A
O1673     Co1676   1.942       .  S
Co1674     O1678   2.002       .  S
Co1675     O1678   2.017       .  S
Co1676     O1678   1.998       .  S
Co1677     O1678   2.047       .  S
C1679      C1746   1.437       .  S
C1680      C1756   1.379       .  S
C1681      C1754   1.429       .  S
C1682      C1748   1.451       .  S
O1683      C1691   1.255       .  A
O1683     Co1703   1.938       .  S
O1684      C1692   1.272       .  A
O1684     Co1704   2.004       .  S
O1685      C1693   1.264       .  A
O1685     Co1705   2.011       .  S
O1686      C1694   1.264       .  A
O1686     Co1706   2.012       .  S
O1687      C1693   1.260       .  A
O1687     Co1704   1.968       .  S
O1688      C1694   1.260       .  A
O1688     Co1703   1.977       .  S
O1689      C1692   1.259       .  A
O1689     Co1706   1.962       .  S
O1690      C1691   1.266       .  A
O1690     Co1705   2.002       .  S
C1691      C1752   1.394       .  S
C1692      C1750   1.437       .  S
C1693      C1766   1.424       .  S
C1694      C1745   1.439       .  S
O1695      C1708   1.264       .  A
O1695     Co1703   1.993       .  S
O1696      C1709   1.280       .  A
O1696     Co1704   1.947       .  S
O1697      C1710   1.278       .  A
O1697     Co1705   1.992       .  S
O1698      C1711   1.245       .  A
O1698     Co1706   1.939       .  S
O1699      C1711   1.253       .  A
O1699     Co1704   1.977       .  S
O1700      C1710   1.280       .  A
O1700     Co1703   2.036       .  S
O1701      C1708   1.255       .  A
O1701     Co1706   1.943       .  S
O1702      C1709   1.306       .  A
O1702     Co1705   2.088       .  S
Co1703     O1707   2.051       .  S
Co1704     O1707   1.963       .  S
Co1705     O1707   2.105       .  S
Co1706     O1707   2.079       .  S
C1708      C1774   1.405       .  S
C1709      C2178   1.499       .  S
C1710      C2386   1.494       .  S
C1711      C2006   1.412       .  S
O1712      C1720   1.270       .  A
O1712     Co1732   2.007       .  S
O1713      C1721   1.267       .  A
O1713     Co1733   1.909       .  S
O1714      C1722   1.283       .  A
O1714     Co1734   2.039       .  S
O1715      C1723   1.269       .  A
O1715     Co1735   2.002       .  S
O1716      C1722   1.277       .  A
O1716     Co1733   1.992   1_545  S
O1717      C1723   1.272       .  A
O1717     Co1732   2.006   1_565  S
O1718      C1721   1.303       .  A
O1718     Co1735   2.155       .  S
O1719      C1720   1.270       .  A
O1719     Co1734   2.004       .  S
C1720      C2036   1.486       .  S
C1721      C1829   1.516       .  S
C1722      C1760   1.497       .  S
C1723      C1958   1.493       .  S
O1724      C1737   1.277       .  A
O1724     Co1732   2.031   1_565  S
O1725      C1738   1.270       .  A
O1725     Co1733   2.024   1_545  S
O1726      C1739   1.271       .  A
O1726     Co1734   1.982       .  S
O1727      C1740   1.271       .  A
O1727     Co1735   1.879       .  S
O1728      C1740   1.300       .  A
O1728     Co1733   2.117       .  S
O1729      C1739   1.281       .  A
O1729     Co1732   2.044       .  S
O1730      C1737   1.276       .  A
O1730     Co1735   2.011       .  S
O1731      C1738   1.264       .  A
O1731     Co1734   2.003       .  S
Co1732     O1736   2.054       .  S
Co1733     O1736   2.001   1_565  S
Co1734     O1736   2.049       .  S
Co1735     O1736   2.015   1_565  S
C1737      C1928   1.512       .  S
C1738      C1741   1.502       .  S
C1739      C2020   1.495       .  S
C1740      C1808   1.471       .  S
C1741      C1742   1.361       .  D
C1741      H1743   1.086       .  S
C1742      H1744   1.086       .  S
C1745      C1746   1.208       .  T
C1747      C1748   1.216       .  T
C1749      C1750   1.208       .  T
C1751      C1752   1.182       .  T
C1753      C1754   1.202       .  T
C1755      C1756   1.174       .  T
C1757      C1758   1.184       .  T
C1759      C1760   1.359       .  D
C1759      H1761   1.086       .  S
C1760      H1762   1.086       .  S
C1763      C1764   1.218       .  T
C1765      C1766   1.200       .  T
C1767      C1768   1.198       .  T
C1769      C1770   1.208       .  T
C1771      C1772   1.213       .  T
C1773      C1774   1.188   1_455  T
C1775      C1776   1.213       .  T
C1777      C1778   1.200   1_655  T
C1779      C1780   1.213       .  T
C1781      C1782   1.209       .  T
C1783      C1784   1.194       .  T
C1785      C1786   1.195       .  T
C1787      C1788   1.202       .  T
C1789      C1790   1.202       .  T
C1791      C1792   1.189       .  T
C1793      C1794   1.193       .  T
C1795      C1796   1.214       .  T
C1797      C1798   1.198       .  T
C1799      C1800   1.190       .  T
C1801      C1802   1.204       .  T
C1803      C1804   1.222       .  T
C1805      C1806   1.190   1_565  T
C1807      C1808   1.348       .  D
C1807      H1809   1.086       .  S
C1808      H1810   1.087       .  S
C1811      C1812   1.206       .  T
C1813      C1814   1.196   1_565  T
C1815      C1816   1.213       .  T
C1817      C1818   1.219       .  T
C1819      C1820   1.206       .  T
C1821      C1822   1.187       .  T
C1823      C1824   1.203       .  T
C1825      C1826   1.197       .  T
C1827      C1828   1.192       .  T
C1829      C1830   1.361       .  D
C1829      H1831   1.087       .  S
C1830      H1832   1.086       .  S
C1833      C1834   1.217       .  T
C1835      C1836   1.186       .  T
C1837      C1838   1.195       .  T
C1839      C1840   1.176       .  T
C1841      C1842   1.218       .  T
C1843      C1844   1.210       .  T
C1845      C1846   1.201   1_565  T
C1847      C1848   1.185   1_545  T
C1849      C1850   1.201   1_455  T
C1851      C1852   1.201       .  T
C1853      C1854   1.185   1_655  T
C1855      C1856   1.204       .  T
C1857      C1858   1.204       .  T
C1859      C1860   1.208       .  T
C1861      C1862   1.200       .  T
C1863      C1864   1.191       .  T
C1865      C1866   1.194       .  T
C1867      C1868   1.195       .  T
C1869      C1870   1.188       .  T
C1871      C1872   1.199       .  T
C1873      C1874   1.219       .  T
C1875      C1876   1.199       .  T
C1877      C1878   1.202       .  T
C1879      C1880   1.198       .  T
C1881      C1882   1.206       .  T
C1883      C1884   1.219       .  T
C1885      C1886   1.190   1_556  T
C1887      C1888   1.203   1_556  T
C1889      C1890   1.210       .  T
C1891      C1892   1.222       .  T
C1893      C1894   1.224       .  T
C1895      C1896   1.199       .  T
C1897      C1898   1.188       .  T
C1899      C1900   1.189       .  T
C1901      C1902   1.194       .  T
C1903      C1904   1.196       .  T
C1905      C1906   1.238       .  T
C1907      C1908   1.196       .  T
C1909      C1910   1.183       .  T
C1911      C1912   1.204       .  T
C1913      C1914   1.201       .  T
C1915      C1916   1.222       .  T
C1917      C1918   1.204   1_554  T
C1919      C1920   1.207   1_554  T
C1921      C1922   1.219   1_455  T
C1923      C1924   1.210       .  T
C1925      C1926   1.197   1_655  T
C1927      C1928   1.361       .  D
C1927      H1929   1.087       .  S
C1928      H1930   1.086       .  S
C1931      C1932   1.221       .  T
C1933      C1934   1.220       .  T
C1935      C1936   1.206       .  T
C1937      C1938   1.212       .  T
C1939      C1940   1.197       .  T
C1941      C1942   1.203       .  T
C1943      C1944   1.192       .  T
C1945      C1946   1.201       .  T
C1947      C1948   1.196       .  T
C1949      C1950   1.198       .  T
C1951      C1952   1.192       .  T
C1953      C1954   1.199       .  T
C1955      C1956   1.172       .  T
C1957      C1958   1.357       .  D
C1957      H1959   1.086       .  S
C1958      H1960   1.086       .  S
C1961      C1962   1.210       .  T
C1963      C1964   1.223       .  T
C1965      C1966   1.199   1_556  T
C1967      C1968   1.216   1_545  T
C1969      C1970   1.205   1_545  T
C1971      C1972   1.202       .  T
C1973      C1974   1.209   1_556  T
C1975      C1976   1.219       .  T
C1977      C1978   1.229       .  T
C1979      C1980   1.208       .  T
C1981      C1982   1.203       .  T
C1983      C1984   1.198       .  T
C1985      C1986   1.200       .  T
C1987      C1988   1.201       .  T
C1989      C1990   1.197       .  T
C1991      C1992   1.193       .  T
C1993      C1994   1.209       .  T
C1995      C1996   1.205       .  T
C1997      C1998   1.195       .  T
C1999      C2000   1.197       .  T
C2001      C2002   1.215       .  T
C2003      C2004   1.200       .  T
C2005      C2006   1.193   1_556  T
C2007      C2008   1.209   1_655  T
C2009      C2010   1.193   1_556  T
C2011      C2012   1.213       .  T
C2013      C2014   1.212       .  T
C2015      C2016   1.203   1_655  T
C2017      C2018   1.197   1_565  T
C2019      C2020   1.355       .  D
C2019      H2021   1.086       .  S
C2020      H2022   1.086       .  S
C2023      C2024   1.229       .  T
C2025      C2026   1.219       .  T
C2027      C2028   1.192       .  T
C2029      C2030   1.179       .  T
C2031      C2032   1.185       .  T
C2033      C2034   1.185       .  T
C2035      C2036   1.351       .  D
C2035      H2037   1.086       .  S
C2036      H2038   1.087       .  S
C2039      C2040   1.198       .  T
C2041      C2042   1.200       .  T
C2043      C2044   1.203       .  T
C2045      C2046   1.201       .  T
C2047      C2048   1.205       .  T
C2049      C2050   1.197       .  T
C2051      C2052   1.201       .  T
C2053      C2054   1.191       .  T
C2055      C2056   1.189       .  T
C2057      C2058   1.206       .  T
C2059      C2060   1.208       .  T
C2061      C2062   1.351       .  D
C2061      H2063   1.086       .  S
C2062      H2064   1.087       .  S
C2065      C2066   1.361       .  D
C2065      H2067   1.086       .  S
C2066      H2068   1.086       .  S
C2069      C2070   1.365       .  D
C2069      H2071   1.086       .  S
C2070      H2072   1.086       .  S
C2073      C2074   1.361       .  D
C2073      H2075   1.088       .  S
C2074      H2076   1.085       .  S
C2077      C2078   1.342       .  D
C2077      H2079   1.087       .  S
C2078      H2080   1.087       .  S
C2081      C2082   1.349       .  D
C2081      H2083   1.087       .  S
C2082      H2084   1.086       .  S
C2085      C2086   1.369       .  D
C2085      H2087   1.085       .  S
C2086      H2088   1.087       .  S
C2089      C2090   1.360       .  D
C2089      H2091   1.086       .  S
C2090      H2092   1.086       .  S
C2093      C2094   1.347       .  D
C2093      H2095   1.086       .  S
C2094      H2096   1.087       .  S
C2097      C2098   1.345       .  D
C2097      H2099   1.087       .  S
C2098      H2100   1.086       .  S
C2101      C2102   1.345       .  D
C2101      H2103   1.086       .  S
C2102      H2104   1.087       .  S
C2105      C2106   1.353       .  D
C2105      H2107   1.088       .  S
C2106      H2108   1.086       .  S
C2109      C2110   1.337       .  D
C2109      H2111   1.087       .  S
C2110      H2112   1.087       .  S
C2113      C2114   1.351       .  D
C2113      H2115   1.086       .  S
C2114      H2116   1.087       .  S
C2117      C2118   1.341       .  D
C2117      H2119   1.087       .  S
C2118      H2120   1.087       .  S
C2121      C2122   1.348       .  D
C2121      H2123   1.087       .  S
C2122      H2124   1.086       .  S
C2125      C2126   1.363       .  D
C2125      H2127   1.086       .  S
C2126      H2128   1.086       .  S
C2129      C2130   1.367       .  D
C2129      H2131   1.086       .  S
C2130      H2132   1.086       .  S
C2133      C2134   1.348       .  D
C2133      H2135   1.087       .  S
C2134      H2136   1.087       .  S
C2137      C2138   1.350       .  D
C2137      H2139   1.087       .  S
C2138      H2140   1.086       .  S
C2141      C2142   1.339       .  D
C2141      H2143   1.086       .  S
C2142      H2144   1.088       .  S
C2145      C2146   1.325       .  D
C2145      H2147   1.088       .  S
C2146      H2148   1.088       .  S
C2149      C2150   1.368       .  D
C2149      H2151   1.086       .  S
C2150      H2152   1.086       .  S
C2153      C2154   1.364       .  D
C2153      H2155   1.086       .  S
C2154      H2156   1.086       .  S
C2157      C2158   1.346       .  D
C2157      H2159   1.087       .  S
C2158      H2160   1.086       .  S
C2161      C2162   1.347       .  D
C2161      H2163   1.088       .  S
C2162      H2164   1.086       .  S
C2165      C2166   1.344       .  D
C2165      H2167   1.087       .  S
C2166      H2168   1.087       .  S
C2169      C2170   1.347       .  D
C2169      H2171   1.087       .  S
C2170      H2172   1.086       .  S
C2173      C2174   1.357       .  D
C2173      H2175   1.087       .  S
C2174      H2176   1.086       .  S
C2177      C2178   1.349       .  D
C2177      H2179   1.087       .  S
C2178      H2180   1.086       .  S
C2181      C2182   1.339       .  D
C2181      H2183   1.087       .  S
C2182      H2184   1.087       .  S
C2185      C2186   1.341       .  D
C2185      H2187   1.086       .  S
C2186      H2188   1.087       .  S
C2189      C2190   1.336       .  D
C2189      H2191   1.087       .  S
C2190      H2192   1.087       .  S
C2193      C2194   1.340       .  D
C2193      H2195   1.087       .  S
C2194      H2196   1.087       .  S
C2197      C2198   1.328       .  D
C2197      H2199   1.088       .  S
C2198      H2200   1.087       .  S
C2201      C2202   1.349       .  D
C2201      H2203   1.087       .  S
C2202      H2204   1.087       .  S
C2205      C2206   1.348       .  D
C2205      H2207   1.089       .  S
C2206      H2208   1.086       .  S
C2209      C2210   1.340       .  D
C2209      H2211   1.086       .  S
C2210      H2212   1.088       .  S
C2213      C2214   1.346       .  D
C2213      H2215   1.086       .  S
C2214      H2216   1.087       .  S
C2217      C2218   1.340       .  D
C2217      H2219   1.087       .  S
C2218      H2220   1.087       .  S
C2221      C2222   1.357       .  D
C2221      H2223   1.087       .  S
C2222      H2224   1.086       .  S
C2225      C2226   1.348       .  D
C2225      H2227   1.087       .  S
C2226      H2228   1.087       .  S
C2229      C2230   1.343       .  D
C2229      H2231   1.087       .  S
C2230      H2232   1.087       .  S
C2233      C2234   1.360       .  D
C2233      H2235   1.087       .  S
C2234      H2236   1.086       .  S
C2237      C2238   1.345       .  D
C2237      H2239   1.086       .  S
C2238      H2240   1.087       .  S
C2241      C2242   1.350       .  D
C2241      H2243   1.087       .  S
C2242      H2244   1.087       .  S
C2245      C2246   1.354       .  D
C2245      H2247   1.088       .  S
C2246      H2248   1.085       .  S
C2249      C2250   1.340       .  D
C2249      H2251   1.086       .  S
C2250      H2252   1.087       .  S
C2253      C2254   1.347       .  D
C2253      H2255   1.086       .  S
C2254      H2256   1.088       .  S
C2257      C2258   1.353       .  D
C2257      H2259   1.086       .  S
C2258      H2260   1.087       .  S
C2261      C2262   1.344       .  D
C2261      H2263   1.087       .  S
C2262      H2264   1.086       .  S
C2265      C2266   1.365       .  D
C2265      H2267   1.087       .  S
C2266      H2268   1.086       .  S
C2269      C2270   1.339       .  D
C2269      H2271   1.087       .  S
C2270      H2272   1.087       .  S
C2273      C2274   1.357       .  D
C2273      H2275   1.086       .  S
C2274      H2276   1.087       .  S
C2277      C2278   1.352       .  D
C2277      H2279   1.086       .  S
C2278      H2280   1.087       .  S
C2281      C2282   1.341       .  D
C2281      H2283   1.087       .  S
C2282      H2284   1.087       .  S
C2285      C2286   1.356       .  D
C2285      H2287   1.086       .  S
C2286      H2288   1.086       .  S
C2289      C2290   1.346       .  D
C2289      H2291   1.086       .  S
C2290      H2292   1.087       .  S
C2293      C2294   1.357       .  D
C2293      H2295   1.086       .  S
C2294      H2296   1.087       .  S
C2297      C2298   1.354       .  D
C2297      H2299   1.086       .  S
C2298      H2300   1.087       .  S
C2301      C2302   1.362       .  D
C2301      H2303   1.087       .  S
C2302      H2304   1.085       .  S
C2305      C2306   1.357       .  D
C2305      H2307   1.086       .  S
C2306      H2308   1.086       .  S
C2309      C2310   1.342       .  D
C2309      H2311   1.087       .  S
C2310      H2312   1.087       .  S
C2313      C2314   1.347       .  D
C2313      H2315   1.086       .  S
C2314      H2316   1.087       .  S
C2317      C2318   1.360       .  D
C2317      H2319   1.086       .  S
C2318      H2320   1.087       .  S
C2321      C2322   1.348       .  D
C2321      H2323   1.087       .  S
C2322      H2324   1.086       .  S
C2325      C2326   1.357       .  D
C2325      H2327   1.086       .  S
C2326      H2328   1.087       .  S
C2329      C2330   1.356       .  D
C2329      H2331   1.086       .  S
C2330      H2332   1.087       .  S
C2333      C2334   1.357       .  D
C2333      H2335   1.086       .  S
C2334      H2336   1.086       .  S
C2337      C2338   1.362       .  D
C2337      H2339   1.086       .  S
C2338      H2340   1.086       .  S
C2341      C2342   1.361       .  D
C2341      H2343   1.087       .  S
C2342      H2344   1.086       .  S
C2345      C2346   1.352       .  D
C2345      H2347   1.086       .  S
C2346      H2348   1.087       .  S
C2349      C2350   1.348       .  D
C2349      H2351   1.086       .  S
C2350      H2352   1.087       .  S
C2353      C2354   1.356       .  D
C2353      H2355   1.087       .  S
C2354      H2356   1.086       .  S
C2357      C2358   1.361       .  D
C2357      H2359   1.086       .  S
C2358      H2360   1.086       .  S
C2361      C2362   1.334       .  D
C2361      H2363   1.088       .  S
C2362      H2364   1.087       .  S
C2365      C2366   1.339       .  D
C2365      H2367   1.087       .  S
C2366      H2368   1.087       .  S
C2369      C2370   1.350       .  D
C2369      H2371   1.088       .  S
C2370      H2372   1.086       .  S
C2373      C2374   1.335       .  D
C2373      H2375   1.086       .  S
C2374      H2376   1.088       .  S
C2377      C2378   1.362       .  D
C2377      H2379   1.086       .  S
C2378      H2380   1.086       .  S
C2381      C2382   1.356       .  D
C2381      H2383   1.086       .  S
C2382      H2384   1.087       .  S
C2385      C2386   1.351       .  D
C2385      H2387   1.086       .  S
C2386      H2388   1.088       .  S
C2389      C2390   1.343       .  D
C2389      H2391   1.087       .  S
C2390      H2392   1.086       .  S
C2393      C2394   1.349       .  D
C2393      H2395   1.087       .  S
C2394      H2396   1.086       .  S
C2397      C2398   1.348       .  D
C2397      H2399   1.086       .  S
C2398      H2400   1.088       .  S
C2401      C2402   1.355       .  D
C2401      H2403   1.087       .  S
C2402      H2404   1.086       .  S
C2405      C2406   1.353       .  D
C2405      H2407   1.086       .  S
C2406      H2408   1.086       .  S
C2409      C2410   1.365       .  D
C2409      H2411   1.086       .  S
C2410      H2412   1.086       .  S
