geometry optimzed in LAMMPS
_audit_creation_date              2020-11-30 
_audit_creation_method            'lammps2cif' 
_symmetry_space_group_name_H-M    'P1' 
_symmetry_Int_Tables_number       1 
_symmetry_cell_setting            triclinic 
loop_ 
_symmetry_equiv_pos_as_xyz 
  x,y,z 
_cell_length_a                    19.79787712 
_cell_length_b                    28.62446208892116 
_cell_length_c                    25.496318493553467 
_cell_angle_alpha                 89.97023924519007 
_cell_angle_beta                  86.09527260852985 
_cell_angle_gamma                 88.5285298438797 
loop_ 
_atom_site_label 
_atom_site_type_symbol 
_atom_site_fract_x 
_atom_site_fract_y 
_atom_site_fract_z 
_atom_site_charge 
C1          C  0.11819928  0.99242841  0.28355103     0.30500
C2          C  0.46184758  0.99101902  0.28312791     0.30500
C3          C  0.07478580  0.96429643  0.32682782    -0.05700
C4          C  0.07530638  0.03958272  0.29090581    -0.06500
C5          C  0.08157920  0.97431944  0.23416417    -0.06300
C6          C  0.50238350  0.96425838  0.32689633    -0.05700
C7          C  0.49989104  0.03827913  0.28744364    -0.06500
C8          C  0.50573319  0.97160169  0.23383038    -0.06400
C9          C  0.48286289  0.95435061  0.37909839    -0.31700
N10         N  0.03431669  0.95316233  0.41074562     0.14800
C11         C  0.09105672  0.95549443  0.37796960    -0.31700
H12         H  0.14161926  0.95568482  0.39103284     0.16700
C13         C  0.47848951  0.08432997  0.28711130    -0.30700
N14         N  0.53342735  0.11186656  0.28564080     0.13500
C15         C  0.09266075  0.08568767  0.29156796    -0.30700
C16         C  0.48872585  0.93858156  0.19814296    -0.31000
N17         N  0.54485657  0.91604947  0.17689412     0.14000
H18         H  0.43814659  0.92880139  0.19121472     0.16600
C19         C  0.09980898  0.93931502  0.19799681    -0.31000
H20         H  0.14959379  0.92421242  0.19089662     0.16600
H21         H  0.14357646  0.09871219  0.28747908     0.16600
H22         H  0.43117568  0.95456889  0.39536024     0.15300
H23         H  0.42711983  0.09696663  0.28317072     0.16600
C24         C  0.21203742  0.99263021  0.28347809     0.30500
C25         C  0.36832583  0.99100407  0.28226681     0.30500
C26         C  0.24954592  0.01021415  0.33291710    -0.05700
C27         C  0.25435032  0.94503054  0.27561649    -0.06500
C28         C  0.25578342  0.02209029  0.24104121    -0.06300
C29         C  0.32358054  0.00951684  0.33174522    -0.05700
C30         C  0.32833940  0.94385968  0.27481286    -0.06500
C31         C  0.32993166  0.02140954  0.24052180    -0.06400
C32         C  0.34011716  0.02512186  0.38015262    -0.31700
N33         N  0.28281281  0.03299470  0.41174687     0.14800
C34         C  0.22811040  0.02578853  0.38301414    -0.31700
H35         H  0.17598121  0.02998793  0.39797261     0.16700
C36         C  0.34771298  0.89859878  0.25849554    -0.30700
N37         N  0.29252120  0.87395588  0.24690041     0.13500
C38         C  0.23648134  0.90088490  0.26053744    -0.30700
C39         C  0.35085300  0.05546013  0.20448194    -0.31000
N40         N  0.29622567  0.07651170  0.18331753     0.14000
H41         H  0.40268381  0.06540056  0.19564453     0.16600
C42         C  0.23905203  0.05655358  0.20539353    -0.31000
H43         H  0.18807171  0.06814648  0.19835643     0.16600
H44         H  0.18558915  0.88930368  0.25767829     0.16600
H45         H  0.39095250  0.02894004  0.39199146     0.16700
H46         H  0.39897304  0.88499643  0.25276250     0.16600
C47         C  0.10520165  0.99533969  0.59667462     0.30500
C48         C  0.94906011  0.99670737  0.59980676     0.30500
C49         C  0.06692752  0.98267059  0.54578256    -0.05700
C50         C  0.06295817  0.96240751  0.63565843    -0.06500
C51         C  0.06250370  0.04311442  0.61244135    -0.06300
C52         C  0.99334647  0.98373929  0.54757497    -0.05700
C53         C  0.98869929  0.96236236  0.63733551    -0.06500
C54         C  0.98809753  0.04217039  0.61796100    -0.06400
C55         C  0.97625882  0.96723198  0.49902357    -0.31700
N56         N  0.03288470  0.95939956  0.46662856     0.14800
C57         C  0.08768888  0.96640821  0.49539987    -0.31700
H58         H  0.13954232  0.95974035  0.48093622     0.16700
C59         C  0.96983335  0.93209881  0.67836903    -0.30700
N60         N  0.02620112  0.91352033  0.69945760     0.13500
C61         C  0.08190978  0.93262209  0.67490180    -0.30700
C62         C  0.97217506  0.07304712  0.66073353    -0.31000
N63         N  0.02524410  0.09967518  0.67268670     0.14000
H64         H  0.43299291  0.07364549  0.67840316     0.16600
C65         C  0.07919206  0.08240595  0.64202518    -0.31000
H66         H  0.12802681  0.09758552  0.64148315     0.16600
H67         H  0.13315360  0.92550750  0.68547620     0.16600
H68         H  0.42818344  0.95573336  0.48469864     0.16700
H69         H  0.42094498  0.91669918  0.68011755     0.16600
C70         C  0.19910692  0.99112839  0.59527800     0.30500
C71         C  0.35535625  0.99076231  0.59178030     0.30500
C72         C  0.24175842  0.01698685  0.54946691    -0.05700
C73         C  0.23708701  0.00927782  0.64374279    -0.06500
C74         C  0.24152114  0.94317713  0.59081492    -0.06300
C75         C  0.31599674  0.01620258  0.54716000    -0.05700
C76         C  0.31126615  0.01345161  0.63815293    -0.06500
C77         C  0.31598885  0.94288014  0.59032105    -0.06400
C78         C  0.33620515  0.02905455  0.49631887    -0.31700
N79         N  0.28115314  0.03583637  0.46757113     0.14800
C80         C  0.22448151  0.03072149  0.50004813    -0.31700
H81         H  0.17373011  0.03370561  0.48759659     0.16700
C82         C  0.31933813  0.05826406  0.65365533    -0.30700
N83         N  0.26410233  0.07518966  0.68039818     0.13500
C84         C  0.21478342  0.04415510  0.67790821    -0.30700
C85         C  0.33510708  0.89695932  0.60030856    -0.31000
N86         N  0.27936456  0.87016658  0.60758466     0.14000
H87         H  0.38592883  0.88447989  0.60582847     0.16600
C88         C  0.22337043  0.89753318  0.60097920    -0.31000
H89         H  0.17224144  0.88584085  0.60747208     0.16600
H90         H  0.16474648  0.04832255  0.69665019     0.16600
H91         H  0.38793724  0.02979314  0.48035241     0.16700
H92         H  0.35220078  0.08152180  0.63153507     0.16600
O93         O  0.39977805  0.49888530  0.99886540    -0.80400
O94         O  0.10791307  0.53322399  0.94435005    -0.65100
O95         O  0.50086929  0.50799903  0.94962944    -1.11700
C96         C  0.01989647  0.39341659  0.09282195     1.06500
O97         O  0.07669403  0.46219208  0.93883334    -0.78300
O98         O  0.08366438  0.37162462  0.96610201    -0.65900
Ni99       Ni  0.42971113  0.55097119  0.96329255     1.34900
C100        C  0.02614064  0.37316676  0.94810438     0.85200
O101        O  0.05818299  0.61394464  0.97545222    -0.78800
O102        O  0.46367862  0.60144248  0.92072956    -0.89100
C103        C  0.11944206  0.49108683  0.94882997     0.84800
O104        O  0.46352468  0.57978435  0.02408014    -0.67300
O105        O  0.07603024  0.39537334  0.06623402    -0.86600
C106        C  0.96343881  0.59922929  0.07230153     0.85600
C107        C  0.01487169  0.63463553  0.94718510     1.07200
H108        H  0.06173033  0.48272349  0.07806980     0.39000
O109        O  0.05706582  0.48370984  0.04059003    -1.09300
O110        O  0.51219222  0.40683115  0.93106235    -0.65900
Ni111      Ni  0.50532481  0.44839472  0.99451363     1.26300
O112        O  0.01062831  0.56891187  0.07040101    -0.66100
O113        O  0.52214328  0.39766122  0.04411094    -0.78400
C114        C  0.39949299  0.46152184  0.97114273     0.85000
O115        O  0.41596638  0.42650337  0.99503156    -0.65600
Ni116      Ni  0.07795704  0.42791137  0.00289725     1.27400
Ni117      Ni  0.05979068  0.54964293  0.00814266     1.26100
H118        H  0.49979186  0.50158467  0.91362312     0.39600
O119        O  0.40529893  0.49503478  0.87946876    -0.80400
O120        O  0.20715807  0.50516287  0.99665716    -0.65100
O121        O  0.30394328  0.51078139  0.92703377    -1.11700
C122        C  0.22537129  0.38366333  0.82353874     1.06500
O123        O  0.18060203  0.43472208  0.98598832    -0.78300
O124        O  0.22039426  0.36278478  0.92727750    -0.65900
Ni125      Ni  0.37396676  0.55080534  0.90823336     1.34900
C126        C  0.27071664  0.36823507  0.95283944     0.85200
O127        O  0.23318898  0.58969101  0.97002535    -0.78800
O128        O  0.33924039  0.60655176  0.94380405    -0.89100
C129        C  0.16644541  0.47670033  0.98509158     0.84800
O130        O  0.33999443  0.57104045  0.84345840    -0.67300
O131        O  0.16742548  0.39666858  0.84489646    -0.86600
C132        C  0.27978784  0.58187710  0.83259730     0.85600
C133        C  0.28656026  0.61354900  0.97393400     1.07200
H134        H  0.20216926  0.47875878  0.85142147     0.39000
O135        O  0.21377073  0.47177211  0.88686244    -1.09300
O136        O  0.29489330  0.40911658  0.95137012    -0.65900
Ni137      Ni  0.29970335  0.44912105  0.88637095     1.26300
O138        O  0.22859179  0.56867777  0.86183364    -0.66100
O139        O  0.28184118  0.39694321  0.84039095    -0.78400
C140        C  0.40508107  0.45959770  0.91005020     0.85000
O141        O  0.38883302  0.42388186  0.88842803    -0.65600
Ni142      Ni  0.16570463  0.41699969  0.91517959     1.27400
Ni143      Ni  0.21861854  0.53391746  0.92817432     1.26100
H144        H  0.30582910  0.50696702  0.96333023     0.39600
C145        C  0.27166805  0.61425031  0.78625230    -0.11500
C146        C  0.20944781  0.63643165  0.77427797     0.04000
C147        C  0.20910351  0.67437911  0.73869078    -0.12000
C148        C  0.26938214  0.69047374  0.71320122     0.18900
C149        C  0.33007134  0.66585895  0.72147134    -0.09000
C150        C  0.33093106  0.62862841  0.75725321    -0.02000
H151        H  0.16164603  0.69240523  0.73217238     0.05400
C152        C  0.27004450  0.73616967  0.68417730     0.20800
H153        H  0.37952635  0.61234023  0.76406601     0.10600
C154        C  0.27473533  0.77755882  0.71310608    -0.15400
C155        C  0.27948269  0.82123595  0.68814058     0.03600
C156        C  0.27802812  0.82482576  0.63306676    -0.10700
C157        C  0.27340803  0.78351374  0.60378137    -0.00700
C158        C  0.27045934  0.73942146  0.62878479    -0.05900
H159        H  0.27592981  0.77578917  0.75548287     0.06600
H160        H  0.27275519  0.78557476  0.56141589     0.10000
Br161      Br  0.41432908  0.68365734  0.68704560    -0.05600
Br162      Br  0.12317731  0.61820064  0.80559383    -0.02500
Br163      Br  0.28858863  0.87540344  0.73084485     0.00300
Br164      Br  0.26876845  0.68454772  0.58591394    -0.04100
C165        C  0.22699675  0.34601001  0.78534833    -0.11500
C166        C  0.19230807  0.30521566  0.79903521     0.04000
C167        C  0.19316891  0.26886119  0.76403965    -0.12000
C168        C  0.24142247  0.26707239  0.72191878     0.18900
C169        C  0.27761689  0.30714521  0.70710998    -0.09000
C170        C  0.26852648  0.34739230  0.73842731    -0.02000
H171        H  0.16637642  0.23772005  0.77545113     0.05400
C172        C  0.26213043  0.21986460  0.70539436     0.20800
H173        H  0.29696659  0.37830635  0.72822114     0.10600
C174        C  0.24309428  0.20307092  0.65743139    -0.15400
C175        C  0.24329295  0.15511736  0.64839850     0.03600
C176        C  0.25596510  0.12383598  0.68980734    -0.10700
C177        C  0.27845208  0.14078482  0.73645439    -0.00700
C178        C  0.28418030  0.18838380  0.74379028    -0.05900
H179        H  0.22754367  0.22712895  0.62745764     0.06600
H180        H  0.29395651  0.11661649  0.76633310     0.10000
Br181      Br  0.34185622  0.30722593  0.64753970    -0.05600
Br182      Br  0.16488411  0.28898287  0.86987116    -0.02500
Br183      Br  0.23290844  0.13480712  0.57784639     0.00300
Br184      Br  0.31893836  0.20889439  0.80826959    -0.04100
C185        C  0.02843325  0.87689355  0.73876825    -0.11500
C186        C  0.05894275  0.83283488  0.72624130     0.04000
C187        C  0.06391615  0.79815183  0.76501950    -0.12000
C188        C  0.03634346  0.80543688  0.81667035     0.18900
C189        C  0.00489333  0.84938894  0.82913661    -0.09000
C190        C  0.00178498  0.88471157  0.79060643    -0.02000
H191        H  0.51529130  0.74965596  0.69751820     0.05400
C192        C  0.03171820  0.76453032  0.85372462     0.20800
H193        H  0.97803271  0.91824305  0.80097717     0.10600
C194        C  0.08725720  0.74872576  0.88132338    -0.15400
C195        C  0.08381475  0.70800739  0.91328833     0.03600
C196        C  0.02485929  0.68076782  0.91715835    -0.10700
C197        C  0.97003627  0.69779400  0.88881207    -0.00700
C198        C  0.97251320  0.73865096  0.85865623    -0.05900
H199        H  0.13363489  0.76809697  0.87794336     0.06600
H200        H  0.44473336  0.68872496  0.90887723     0.10000
Br201      Br  0.96368611  0.86225128  0.89787007    -0.05600
Br202      Br  0.50635463  0.82329972  0.61801764    -0.02500
Br203      Br  0.16126630  0.69212108  0.94968364     0.00300
Br204      Br  0.41554977  0.77936223  0.86182964    -0.04100
C205        C  0.02370095  0.13811638  0.71250046    -0.11500
C206        C  0.97578589  0.17551857  0.71214597     0.04000
C207        C  0.97283842  0.21256123  0.75000037    -0.12000
C208        C  0.01670222  0.21424890  0.79167330     0.18900
C209        C  0.06363288  0.17522471  0.79335632    -0.09000
C210        C  0.06799305  0.13919209  0.75382834    -0.02000
H211        H  0.43452699  0.24623336  0.72326325     0.05400
C212        C  0.01187997  0.25622115  0.83173986     0.20800
H213        H  0.10514819  0.11103995  0.75649806     0.10600
C214        C  0.00359933  0.24920248  0.88692543    -0.15400
C215        C  0.00350644  0.28675609  0.92421506     0.03600
C216        C  0.00908876  0.33439222  0.90863489    -0.10700
C217        C  0.01387999  0.34184796  0.85357777    -0.00700
C218        C  0.01588409  0.30420341  0.81611969    -0.05900
H219        H  0.99902603  0.21387340  0.90162077     0.06600
H220        H  0.02122328  0.37709770  0.83927383     0.10000
Br221      Br  0.12376517  0.16812485  0.84890167    -0.05600
Br222      Br  0.42277094  0.18993673  0.62756900    -0.02500
Br223      Br  0.99968000  0.27094459  0.99724941     0.00300
Br224      Br  0.03508228  0.32049325  0.74390832    -0.04100
C225        C  0.29300789  0.83428897  0.21071206    -0.11500
C226        C  0.33250834  0.79309725  0.21690205     0.04000
C227        C  0.33311875  0.75675681  0.17912446    -0.12000
C228        C  0.29556001  0.76033223  0.13417145     0.18900
C229        C  0.25348871  0.80055098  0.12966030    -0.09000
C230        C  0.25357998  0.83687196  0.16675046    -0.02000
H231        H  0.36280131  0.72536401  0.18478998     0.05400
C232        C  0.29899425  0.72178536  0.09331819     0.20800
H233        H  0.22264836  0.86770311  0.16075011     0.10600
C234        C  0.28474832  0.67534676  0.10789301    -0.15400
C235        C  0.28262382  0.63964836  0.06978032     0.03600
C236        C  0.29009928  0.65034308  0.01555328    -0.10700
C237        C  0.31143977  0.69534353  0.00148171    -0.00700
C238        C  0.31687969  0.73045625  0.03948314    -0.05900
H239        H  0.27535964  0.66670143  0.14905717     0.06600
H240        H  0.32405324  0.70328789  0.96048668     0.10000
Br241      Br  0.19059533  0.80656906  0.07576139    -0.05600
Br242      Br  0.38312340  0.78398825  0.27765690    -0.02500
Br243      Br  0.27473753  0.57616208  0.09354832     0.00300
Br244      Br  0.35395749  0.78854670  0.01561757    -0.04100
C245        C  0.29828335  0.11742483  0.14873054    -0.11500
C246        C  0.25984663  0.12093381  0.10398066     0.04000
C247        C  0.26040558  0.16201938  0.07299939    -0.12000
C248        C  0.30053215  0.20047194  0.08406612     0.18900
C249        C  0.34010987  0.19629142  0.12823066    -0.09000
C250        C  0.33879348  0.15552983  0.15963623    -0.02000
H251        H  0.22913365  0.16378897  0.03980106     0.05400
C252        C  0.29976035  0.24439161  0.04998523     0.20800
H253        H  0.36925855  0.15382258  0.19332652     0.10600
C254        C  0.28600391  0.28882654  0.07309272    -0.15400
C255        C  0.28321277  0.33018066  0.04272897     0.03600
C256        C  0.29196051  0.32835312  0.98731904    -0.10700
C257        C  0.30606694  0.28415051  0.96411907    -0.00700
C258        C  0.31103250  0.24297072  0.99443674    -0.05900
H259        H  0.27574097  0.29143784  0.11523418     0.06600
H260        H  0.31204295  0.28144795  0.92165396     0.10000
Br261      Br  0.39893957  0.24471373  0.14682765    -0.05600
Br262      Br  0.20988271  0.06916033  0.08086755    -0.02500
Br263      Br  0.26269285  0.38797965  0.07883489     0.00300
Br264      Br  0.33492368  0.18595523  0.95730518    -0.04100
C265        C  0.03449371  0.87257173  0.16877695    -0.11500
C266        C  0.50181468  0.85171725  0.12245871     0.04000
C267        C  0.49889123  0.80381813  0.11086650    -0.12000
C268        C  0.99634238  0.77759626  0.16637463     0.18900
C269        C  0.03798934  0.79317131  0.20493617    -0.09000
C270        C  0.05611452  0.84015437  0.20620845    -0.02000
H271        H  0.46752146  0.79282522  0.08033932     0.05400
C272        C  0.99155786  0.72724684  0.15402068     0.20800
H273        H  0.08573496  0.85169032  0.23761305     0.10600
C274        C  0.04323633  0.70761479  0.12098642    -0.15400
C275        C  0.03697539  0.66323429  0.10039185     0.03600
C276        C  0.97363162  0.64097637  0.10466744    -0.10700
C277        C  0.50955093  0.63858738  0.11493310    -0.00700
C278        C  0.51339783  0.68159328  0.14180835    -0.05900
H279        H  0.08960565  0.72636304  0.11256667     0.06600
H280        H  0.48545126  0.60936123  0.13486510     0.10000
Br281      Br  0.07166522  0.75135569  0.25633669    -0.05600
Br282      Br  0.44823850  0.89437531  0.08361599    -0.02500
Br283      Br  0.11935241  0.63437775  0.07255615     0.00300
Br284      Br  0.48091743  0.68379337  0.21417625    -0.04100
C285        C  0.01874703  0.36730599  0.14314848    -0.11500
C286        C  0.95931635  0.35604584  0.17399087     0.04000
C287        C  0.96324884  0.32288036  0.21422204    -0.12000
C288        C  0.02567005  0.30192387  0.22459937     0.18900
C289        C  0.08539391  0.31968467  0.20086151    -0.09000
C290        C  0.08169726  0.35167437  0.16023429    -0.02000
H291        H  0.46900913  0.32167334  0.21564656     0.05400
C292        C  0.02723865  0.25394741  0.24468927     0.20800
H293        H  0.12878739  0.36224694  0.14021776     0.10600
C294        C  0.55091878  0.20815487  0.18915794    -0.15400
C295        C  0.54056973  0.16402538  0.21002667     0.03600
C296        C  0.03397399  0.16061681  0.27639281    -0.10700
C297        C  0.01848811  0.19590546  0.31374043    -0.00700
C298        C  0.01435633  0.24273600  0.29800897    -0.05900
H299        H  0.55700543  0.21213574  0.14681943     0.06600
H300        H  0.00913816  0.18684832  0.35478192     0.10000
Br301      Br  0.17292380  0.29669654  0.21853949    -0.05600
Br302      Br  0.44314855  0.40055101  0.14682685    -0.02500
Br303      Br  0.53882596  0.11236417  0.16231865     0.00300
Br304      Br  0.99216619  0.29006949  0.34982466    -0.04100
C305        C  0.61824965  0.99285220  0.27945232     0.30500
C306        C  0.96208934  0.99417256  0.28287270     0.30500
C307        C  0.57707860  0.96508913  0.32486960    -0.05700
C308        C  0.57388371  0.03889556  0.28620371    -0.06500
C309        C  0.58000076  0.97201257  0.23139516    -0.06300
C310        C  0.99990207  0.96503881  0.32740809    -0.05700
C311        C  0.00115107  0.04010024  0.29077162    -0.06500
C312        C  0.00779193  0.97743044  0.23355222    -0.06400
C313        C  0.97977415  0.95759892  0.38062817    -0.31700
N314        N  0.53797042  0.94994497  0.40838345     0.14800
C315        C  0.59445758  0.95473518  0.37548355    -0.31700
H316        H  0.64515378  0.95475170  0.38826883     0.16700
C317        C  0.98024250  0.08593637  0.29191499    -0.30700
N318        N  0.03536821  0.11290651  0.29190762     0.13500
C319        C  0.59067393  0.08492457  0.28617860    -0.30700
C320        C  0.99049040  0.94909511  0.19397775    -0.31000
N321        N  0.04415059  0.92188469  0.17709624     0.14000
H322        H  0.93989250  0.94453056  0.18258806     0.16600
C323        C  0.59949836  0.93836743  0.19341038    -0.31000
H324        H  0.65050792  0.92897774  0.17954168     0.16600
H325        H  0.64143519  0.09810055  0.28146161     0.16600
H326        H  0.92815031  0.95896344  0.39689291     0.15300
H327        H  0.92904381  0.09899872  0.28803288     0.16600
C328        C  0.71224894  0.99651122  0.27824562     0.30500
C329        C  0.86865418  0.99540079  0.27774098     0.30500
C330        C  0.74940656  0.01086439  0.32921265    -0.05700
C331        C  0.75494704  0.95010229  0.26627386    -0.06500
C332        C  0.75604310  0.02975053  0.23809271    -0.06300
C333        C  0.82326445  0.01051320  0.32821838    -0.05700
C334        C  0.82886072  0.94887016  0.26448607    -0.06500
C335        C  0.83032658  0.02948903  0.23825769    -0.06400
C336        C  0.83964722  0.02598868  0.37681517    -0.31700
N337        N  0.78250969  0.03269605  0.40872340     0.14800
C338        C  0.72789251  0.02555109  0.37978131    -0.31700
H339        H  0.67574711  0.02996623  0.39464141     0.16700
C340        C  0.84674025  0.90608332  0.23918083    -0.30700
N341        N  0.79049343  0.88376792  0.22515114     0.13500
C342        C  0.73593766  0.90827928  0.24588077    -0.30700
C343        C  0.85128911  0.06487038  0.20297090    -0.31000
N344        N  0.79708819  0.08636223  0.18094131     0.14000
H345        H  0.90335351  0.07452789  0.19441144     0.16600
C346        C  0.73992083  0.06521851  0.20243442    -0.31000
H347        H  0.68893726  0.07593507  0.19435414     0.16600
H348        H  0.68527253  0.89598837  0.24662016     0.16600
H349        H  0.89022560  0.03160953  0.38830060     0.16700
H350        H  0.89716513  0.89179232  0.23078173     0.16600
C351        C  0.60549192  0.99624040  0.59308310     0.30500
C352        C  0.44927247  0.99339355  0.59535280     0.30500
C353        C  0.56870254  0.97812447  0.54343123    -0.05700
C354        C  0.56355830  0.96582551  0.63503827    -0.06500
C355        C  0.56066107  0.04381423  0.60098146    -0.06300
C356        C  0.49484649  0.97762063  0.54476737    -0.05700
C357        C  0.48961775  0.96349501  0.63537502    -0.06500
C358        C  0.48647357  0.04131730  0.60779826    -0.06400
C359        C  0.47877432  0.96134467  0.49620161    -0.31700
N360        N  0.53610989  0.95423850  0.46434333     0.14800
C361        C  0.59045727  0.96213778  0.49327185    -0.31700
H362        H  0.64256153  0.95742535  0.47853636     0.16700
C363        C  0.47142999  0.92907358  0.67106498    -0.30700
N364        N  0.52796488  0.91033696  0.69108324     0.13500
C365        C  0.58297273  0.93338095  0.67130697    -0.30700
C366        C  0.47192264  0.07550909  0.64711462    -0.31000
N367        N  0.52289963  0.10557884  0.65136981     0.14000
H368        H  0.92658326  0.07249863  0.68617867     0.16600
C369        C  0.57633123  0.08729876  0.62140018    -0.31000
H370        H  0.62433474  0.10395707  0.61620395     0.16600
H371        H  0.63414085  0.92511510  0.68076718     0.16600
H372        H  0.92576974  0.96007413  0.48845157     0.16700
H373        H  0.91851846  0.92404878  0.69198949     0.16600
C374        C  0.69929999  0.99531891  0.59510435     0.30500
C375        C  0.85534225  0.99755706  0.59457114     0.30500
C376        C  0.74257887  0.01523412  0.54612895    -0.05700
C377        C  0.73512984  0.02253154  0.63990169    -0.06500
C378        C  0.74334994  0.94842974  0.59991603    -0.06300
C379        C  0.81676452  0.01573031  0.54476319    -0.05700
C380        C  0.80939538  0.02709435  0.63535706    -0.06500
C381        C  0.81721600  0.95011882  0.60041692    -0.06400
C382        C  0.83642333  0.02952802  0.49374581    -0.31700
N383        N  0.78110554  0.03475617  0.46464948     0.14800
C384        C  0.72469020  0.02864219  0.49693279    -0.31700
H385        H  0.67375966  0.03194132  0.48481097     0.16700
C386        C  0.81715978  0.07410419  0.64418624    -0.30700
N387        N  0.75950743  0.09462193  0.66464434     0.13500
C388        C  0.71115567  0.06231451  0.66602070    -0.30700
C389        C  0.84040447  0.90482573  0.60584299    -0.31000
N390        N  0.78712725  0.87604836  0.61053531     0.14000
H391        H  0.89267125  0.89329512  0.60704080     0.16600
C392        C  0.72871808  0.90145436  0.60569413    -0.31000
H393        H  0.67904570  0.88652693  0.60674827     0.16600
H394        H  0.66071648  0.06778541  0.68290161     0.16600
H395        H  0.88788612  0.03366744  0.47816583     0.16700
H396        H  0.85779161  0.09387331  0.62585551     0.16600
O397        O  0.86796015  0.51427765  0.99750795    -0.80400
O398        O  0.59863109  0.49503696  0.88112623    -0.65100
O399        O  0.98500328  0.52505883  0.97972939    -1.11700
C400        C  0.57777089  0.38505589  0.06428826     1.06500
O401        O  0.62945683  0.42492021  0.89649283    -0.78300
O402        O  0.58362994  0.35664447  0.95809746    -0.65900
Ni403      Ni  0.91063244  0.56654549  0.97359259     1.34900
C404        C  0.53536326  0.36485732  0.92993331     0.85200
O405        O  0.57278884  0.58311717  0.90258661    -0.78800
O406        O  0.95822939  0.61694236  0.94230963    -0.89100
C407        C  0.64054887  0.46710142  0.89558949     0.84800
O408        O  0.91492081  0.59799130  0.04153664    -0.67300
O409        O  0.63540858  0.39251357  0.04050020    -0.86600
C410        C  0.52438976  0.59012465  0.03146545     0.85600
C411        C  0.51998567  0.60884274  0.89612932     1.07200
H412        H  0.60274122  0.47646354  0.02740432     0.39000
O413        O  0.59127478  0.46783875  0.99250220    -1.09300
O414        O  0.98600932  0.40884797  0.96364232    -0.65900
Ni415      Ni  0.97255213  0.46317422  0.02195828     1.26300
O416        O  0.57525305  0.56796941  0.00887075    -0.66100
O417        O  0.96766737  0.41422663  0.07576496    -0.78400
C418        C  0.88317875  0.47740530  0.97013383     0.85000
O419        O  0.89051930  0.44323700  0.99820282    -0.65600
Ni420      Ni  0.63997223  0.40941481  0.96872904     1.27400
Ni421      Ni  0.58590453  0.52817853  0.94688853     1.26100
H422        H  0.00157400  0.52195431  0.94459096     0.39600
O423        O  0.93373942  0.51176873  0.88494601    -0.80400
O424        O  0.69256573  0.52524324  0.93774043    -0.65100
O425        O  0.81559862  0.52505174  0.89974335    -1.11700
C426        C  0.79071548  0.39770671  0.78092669     1.06500
O427        O  0.73445253  0.45654739  0.93876402    -0.78300
O428        O  0.73395955  0.36896846  0.90389744    -0.65900
Ni429      Ni  0.88802002  0.56686036  0.89923757     1.34900
C430        C  0.78995580  0.37065071  0.92402723     0.85200
O431        O  0.73169294  0.60711563  0.91968262    -0.78800
O432        O  0.83975382  0.62401648  0.91788845    -0.89100
C433        C  0.68688921  0.48313549  0.93127674     0.84800
O434        O  0.88735463  0.58071474  0.82555106    -0.67300
O435        O  0.73434247  0.39918482  0.80679088    -0.86600
C436        C  0.83686762  0.58751109  0.79778958     0.85600
C437        C  0.77981711  0.63142074  0.93611038     1.07200
H438        H  0.74313505  0.48703585  0.79982638     0.39000
O439        O  0.74652982  0.48586571  0.83743933    -1.09300
O440        O  0.82718372  0.40726002  0.91175704    -0.65900
Ni441      Ni  0.83261896  0.46406545  0.85625343     1.26300
O442        O  0.77657670  0.57829113  0.81440754    -0.66100
O443        O  0.84200102  0.41659554  0.79994596    -0.78400
C444        C  0.91878552  0.47624065  0.91291988     0.85000
O445        O  0.91323669  0.44170037  0.88473060    -0.65600
Ni446      Ni  0.73323650  0.42727414  0.87162185     1.27400
Ni447      Ni  0.73576754  0.54908899  0.87616190     1.26100
H448        H  0.80105316  0.52241202  0.93536013     0.39600
C449        C  0.84660342  0.61212015  0.74655935    -0.11500
C450        C  0.79576212  0.61304692  0.71024656     0.04000
C451        C  0.78880865  0.65188682  0.67733980    -0.12000
C452        C  0.83668375  0.68718395  0.67604254     0.18900
C453        C  0.89588829  0.68002642  0.70286381    -0.09000
C454        C  0.89982626  0.64344021  0.73904579    -0.02000
H455        H  0.74526950  0.65515379  0.65394190     0.05400
C456        C  0.81913575  0.73407795  0.65543439     0.20800
H457        H  0.94193203  0.64190973  0.76404756     0.10600
C458        C  0.78172275  0.76522564  0.68931601    -0.15400
C459        C  0.76944161  0.81159595  0.67452469     0.03600
C460        C  0.79297522  0.82736501  0.62436188    -0.10700
C461        C  0.83001598  0.79607059  0.59024308    -0.00700
C462        C  0.84323203  0.74970503  0.60544216    -0.05900
H463        H  0.76458317  0.75391738  0.72846232     0.06600
H464        H  0.85003804  0.80820018  0.55221212     0.10000
Br465      Br  0.97022942  0.72118392  0.69386332    -0.05600
Br466      Br  0.73863735  0.56086535  0.70180640    -0.02500
Br467      Br  0.72797190  0.85340141  0.72653095     0.00300
Br468      Br  0.89645792  0.70941489  0.55797135    -0.04100
C469        C  0.79342501  0.37218011  0.73085816    -0.11500
C470        C  0.73248635  0.36438308  0.70666361     0.04000
C471        C  0.72565316  0.32292911  0.67913905    -0.12000
C472        C  0.78160890  0.29264541  0.67001353     0.18900
C473        C  0.84638796  0.30946341  0.67891332    -0.09000
C474        C  0.85186722  0.34761412  0.71240183    -0.02000
H475        H  0.67604839  0.31278459  0.66851031     0.05400
C476        C  0.76874324  0.24195685  0.66878211     0.20800
H477        H  0.90068028  0.35713087  0.72502292     0.10600
C478        C  0.75757907  0.21961995  0.62147156    -0.15400
C479        C  0.74819117  0.17123115  0.62022149     0.03600
C480        C  0.74909587  0.14454394  0.66692409    -0.10700
C481        C  0.75425860  0.16764473  0.71476006    -0.00700
C482        C  0.76369373  0.21598791  0.71608109    -0.05900
H483        H  0.75868810  0.23949697  0.58527644     0.06600
H484        H  0.75533052  0.14754263  0.75068949     0.10000
Br485      Br  0.92607501  0.28882533  0.63851079    -0.05600
Br486      Br  0.65712971  0.40820189  0.71248966    -0.02500
Br487      Br  0.73939995  0.14264421  0.55325407     0.00300
Br488      Br  0.77309531  0.24461311  0.78324105    -0.04100
C489        C  0.53150217  0.86629375  0.71805914    -0.11500
C490        C  0.52108083  0.82418151  0.69155786     0.04000
C491        C  0.52388821  0.78150889  0.71837176    -0.12000
C492        C  0.53718140  0.77979929  0.77171925     0.18900
C493        C  0.55411249  0.82162426  0.79665015    -0.09000
C494        C  0.55023154  0.86446351  0.77002809    -0.02000
H495        H  0.08625994  0.76433173  0.75405979     0.05400
C496        C  0.53033863  0.73490737  0.80135388     0.20800
H497        H  0.56223095  0.89641567  0.78970033     0.10600
C498        C  0.56932173  0.69494648  0.78541440    -0.15400
C499        C  0.56450120  0.65307506  0.81436593     0.03600
C500        C  0.52296118  0.65108396  0.86134140    -0.10700
C501        C  0.48025701  0.69002828  0.87469661    -0.00700
C502        C  0.48247163  0.73098373  0.84459232    -0.05900
H503        H  0.60288238  0.69611660  0.75008168     0.06600
H504        H  0.92383394  0.67896503  0.88879998     0.10000
Br505      Br  0.58661380  0.82152654  0.86587155    -0.05600
Br506      Br  0.08723940  0.81664905  0.65513700    -0.02500
Br507      Br  0.60748813  0.59779445  0.78508669     0.00300
Br508      Br  0.89315953  0.75693704  0.82352042    -0.04100
C509        C  0.52199460  0.14425045  0.68952028    -0.11500
C510        C  0.47639032  0.18286309  0.68686951     0.04000
C511        C  0.47124632  0.21789886  0.72650243    -0.12000
C512        C  0.51248603  0.21684588  0.76979622     0.18900
C513        C  0.55846147  0.17796812  0.77211232    -0.09000
C514        C  0.56241613  0.14259714  0.73293290    -0.02000
H515        H  0.93497602  0.24019900  0.74704168     0.05400
C516        C  0.50848288  0.25632466  0.81102971     0.20800
H517        H  0.59652199  0.11310980  0.73736903     0.10600
C518        C  0.50143087  0.24620947  0.86547040    -0.15400
C519        C  0.50689829  0.28109552  0.90440513     0.03600
C520        C  0.51678135  0.32843210  0.89034690    -0.10700
C521        C  0.51798165  0.33934500  0.83640312    -0.00700
C522        C  0.51447635  0.30429467  0.79733661    -0.05900
H523        H  0.49349882  0.21051545  0.87802249     0.06600
H524        H  0.52579630  0.37516139  0.82417656     0.10000
Br525      Br  0.61934810  0.17138171  0.82723113    -0.05600
Br526      Br  0.91528050  0.17710947  0.65756800    -0.02500
Br527      Br  0.50095183  0.26233850  0.97685459     0.00300
Br528      Br  0.52392857  0.32415213  0.72551202    -0.04100
C529        C  0.78731794  0.84711693  0.18537405    -0.11500
C530        C  0.79550286  0.79979470  0.19798481     0.04000
C531        C  0.79253771  0.76434051  0.15879885    -0.12000
C532        C  0.77675415  0.77516759  0.10653656     0.18900
C533        C  0.75837270  0.82257296  0.09700058    -0.09000
C534        C  0.76642743  0.85780372  0.13493870    -0.02000
H535        H  0.79954323  0.72817538  0.16968587     0.05400
C536        C  0.77666510  0.73767258  0.06307376     0.20800
H537        H  0.75335521  0.89370469  0.12579226     0.10600
C538        C  0.74547834  0.69410218  0.07154581    -0.15400
C539        C  0.74479708  0.65975822  0.03102300     0.03600
C540        C  0.77031051  0.66919342  0.97867470    -0.10700
C541        C  0.80380019  0.71180679  0.97116397    -0.00700
C542        C  0.80960142  0.74427099  0.01244051    -0.05900
H543        H  0.72314560  0.68598700  0.11031369     0.06600
H544        H  0.82928284  0.71891684  0.93326046     0.10000
Br545      Br  0.71178996  0.84008670  0.03603115    -0.05600
Br546      Br  0.79853342  0.78523987  0.27116539    -0.02500
Br547      Br  0.71672731  0.59829468  0.05081382     0.00300
Br548      Br  0.87243865  0.79340580  0.99919337    -0.04100
C549        C  0.80013818  0.12670674  0.14378311    -0.11500
C550        C  0.75942975  0.13092284  0.09989781     0.04000
C551        C  0.76306242  0.17048937  0.06562841    -0.12000
C552        C  0.80849038  0.20728614  0.07153207     0.18900
C553        C  0.85016634  0.20239347  0.11459562    -0.09000
C554        C  0.84581182  0.16337319  0.14958336    -0.02000
H555        H  0.73006662  0.17215937  0.03348962     0.05400
C556        C  0.81103625  0.24992162  0.03336332     0.20800
H557        H  0.87867723  0.16185356  0.18183044     0.10600
C558        C  0.80332096  0.29648214  0.05222507    -0.15400
C559        C  0.80054475  0.33605800  0.01819579     0.03600
C560        C  0.80754380  0.33128455  0.96256242    -0.10700
C561        C  0.81690307  0.28493297  0.94370448    -0.00700
C562        C  0.81912545  0.24533497  0.97768478    -0.05900
H563        H  0.79679456  0.30234342  0.09415612     0.06600
H564        H  0.82120005  0.27917808  0.90161657     0.10000
Br565      Br  0.91648890  0.24749019  0.12626889    -0.05600
Br566      Br  0.70267172  0.08141289  0.08079093    -0.02500
Br567      Br  0.78019817  0.39533090  0.05065330     0.00300
Br568      Br  0.83611695  0.18549633  0.94519441    -0.04100
C569        C  0.54498636  0.86737343  0.16023550    -0.11500
C570        C  0.99212600  0.85691662  0.13053373     0.04000
C571        C  0.97356688  0.80996025  0.12959243    -0.12000
C572        C  0.53751196  0.76999663  0.13659386     0.18900
C573        C  0.57981390  0.78536461  0.17494170    -0.09000
C574        C  0.58296329  0.83331946  0.18654404    -0.02000
H575        H  0.94341311  0.79811413  0.09860763     0.05400
C576        C  0.54112072  0.72105743  0.11541035     0.20800
H577        H  0.61437608  0.84383092  0.21715619     0.10600
C578        C  0.56916468  0.71509441  0.06411025    -0.15400
C579        C  0.56723471  0.67238721  0.03801596     0.03600
C580        C  0.53616823  0.63323224  0.06264100    -0.10700
C581        C  0.92318088  0.65923445  0.14045469    -0.00700
C582        C  0.93593591  0.69938690  0.16954924    -0.05900
H583        H  0.59135070  0.74468814  0.04339450     0.06600
H584        H  0.87819533  0.63938361  0.15019276     0.10000
Br585      Br  0.63560062  0.74241410  0.21146397    -0.05600
Br586      Br  0.96023814  0.89823052  0.07791642    -0.02500
Br587      Br  0.60350167  0.67308446  0.96700600     0.00300
Br588      Br  0.90191854  0.69906679  0.24100275    -0.04100
C589        C  0.57588292  0.35771347  0.11380064    -0.11500
C590        C  0.51867820  0.35754921  0.15026375     0.04000
C591        C  0.51529642  0.32442280  0.19074401    -0.12000
C592        C  0.56858067  0.29205432  0.19598359     0.18900
C593        C  0.62899859  0.29657574  0.16458498    -0.09000
C594        C  0.63206637  0.32868284  0.12347256    -0.02000
H595        H  0.91698453  0.31004927  0.23364194     0.05400
C596        C  0.55465163  0.24709760  0.22198853     0.20800
H597        H  0.67716968  0.32884767  0.09723169     0.10600
C598        C  0.04218309  0.21832169  0.20768369    -0.15400
C599        C  0.04399391  0.17189868  0.22297383     0.03600
C600        C  0.53422287  0.15803181  0.26473644    -0.10700
C601        C  0.53660914  0.19683449  0.29807419    -0.00700
C602        C  0.54631755  0.24162301  0.27690530    -0.05900
H603        H  0.05160834  0.22674820  0.16643193     0.06600
H604        H  0.53267919  0.19198908  0.34028316     0.10000
Br605      Br  0.70591858  0.25623822  0.17437018    -0.05600
Br606      Br  0.87146325  0.38156973  0.16218092    -0.02500
Br607      Br  0.05630222  0.12477749  0.16943865     0.00300
Br608      Br  0.55171475  0.29346883  0.32377176    -0.04100
loop_ 
_geom_bond_atom_site_label_1 
_geom_bond_atom_site_label_2 
_geom_bond_distance 
_geom_bond_site_symmetry_2 
_ccdc_geom_bond_type 
C1            C3   1.584       .  S
C1            C5   1.589       .  S
C1            C4   1.580   1_565  S
C1           C24   1.858       .  S
C2            C6   1.602       .  S
C2            C8   1.572       .  S
C2            C7   1.573   1_565  S
C2           C25   1.853       .  S
C3           C11   1.386       .  A
C3          C310   1.481   1_455  A
C4           C15   1.373       .  A
C4          C311   1.468       .  A
C5           C19   1.386       .  A
C5          C312   1.462       .  A
C6            C9   1.392       .  A
C6          C307   1.477       .  A
C7           C13   1.374       .  A
C7          C308   1.464       .  A
C8           C16   1.376       .  A
C8          C309   1.468       .  A
C9           H22   1.077       .  S
C9          N314   1.367       .  A
N10          C11   1.357       .  A
N10         C313   1.370   1_455  A
N10          N56   1.434       .  S
C11          H12   1.076       .  S
C13          H23   1.082       .  S
C13          N14   1.358       .  A
N14         C319   1.355       .  A
N14         C600   1.425       .  S
C15          H21   1.082       .  S
C15         N318   1.359       .  A
C16          H18   1.073       .  S
C16          N17   1.351       .  A
N17         C323   1.361       .  A
N17         C569   1.457       .  S
C19          H20   1.070       .  S
C19         N321   1.362       .  A
C24          C26   1.594   1_565  S
C24          C28   1.594   1_565  S
C24          C27   1.587       .  S
C25          C29   1.575   1_565  S
C25          C31   1.595   1_565  S
C25          C30   1.600       .  S
C26          C34   1.388       .  A
C26          C29   1.464       .  A
C27          C38   1.383       .  A
C27          C30   1.463       .  A
C28          C42   1.390       .  A
C28          C31   1.467       .  A
C29          C32   1.376       .  A
C30          C36   1.397       .  A
C31          C39   1.391       .  A
C32          H45   1.078       .  S
C32          N33   1.360       .  A
N33          C34   1.368       .  A
N33          N79   1.424       .  S
C34          H35   1.079       .  S
C36          H46   1.078       .  S
C36          N37   1.365       .  A
N37          C38   1.360       .  A
N37         C225   1.463       .  S
C38          H44   1.076       .  S
C39          H41   1.081       .  S
C39          N40   1.367       .  A
N40          C42   1.368       .  A
N40         C245   1.465       .  S
C42          H43   1.081       .  S
C47          C49   1.593       .  S
C47          C51   1.625   1_565  S
C47          C50   1.582       .  S
C47          C70   1.858       .  S
C48          C52   1.583       .  S
C48          C54   1.614   1_565  S
C48          C53   1.600       .  S
C48         C375   1.869       .  S
C49          C57   1.398       .  A
C49          C52   1.454   1_455  A
C50          C61   1.379       .  A
C50          C53   1.468   1_455  A
C51          C65   1.413       .  A
C51          C54   1.471   1_455  A
C52          C55   1.391       .  A
C53          C59   1.395       .  A
C54          C62   1.418       .  A
C55         H372   1.078       .  S
C55          N56   1.360   1_655  A
N56          C57   1.369       .  A
C57          H58   1.079       .  S
C59         H373   1.082       .  S
C59          N60   1.367   1_655  A
N60          C61   1.358       .  A
N60         C185   1.452       .  S
C61          H67   1.082       .  S
C62         H368   1.076       .  S
C62          N63   1.365   1_655  A
N63          C65   1.362       .  A
N63         C205   1.496       .  S
H64         C366   1.073       .  S
C65          H66   1.069       .  S
H68         C359   1.079       .  S
H69         C363   1.079       .  S
C70          C72   1.588   1_565  S
C70          C74   1.591       .  S
C70          C73   1.584   1_565  S
C71          C75   1.588   1_565  S
C71          C77   1.596       .  S
C71          C76   1.553   1_565  S
C71         C352   1.871       .  S
C72          C80   1.382       .  A
C72          C75   1.467       .  A
C73          C84   1.370       .  A
C73          C76   1.474       .  A
C74          C88   1.384       .  A
C74          C77   1.473       .  A
C75          C78   1.383       .  A
C76          C82   1.359       .  A
C77          C85   1.387       .  A
C78          H91   1.077       .  S
C78          N79   1.364       .  A
N79          C80   1.359       .  A
C80          H81   1.075       .  S
C82          H92   1.075       .  S
C82          N83   1.329       .  A
N83          C84   1.341       .  A
N83         C176   1.416       .  S
C84          H90   1.074       .  S
C85          H87   1.077       .  S
C85          N86   1.362       .  A
N86          C88   1.361       .  A
N86         C156   1.451       .  S
C88          H89   1.076       .  S
O93         Ni99   1.835       .  S
O93         C114   1.283       .  A
O94        Ni117   1.882   1_556  S
O94         C103   1.229       .  A
O95         Ni99   1.861       .  S
O95        Ni111   2.057       .  S
O95        Ni421   1.791       .  S
O95         H118   0.938       .  S
C96         O105   1.264       .  A
C96         O417   1.282   1_455  A
C96         C285   1.484       .  S
O97        Ni116   1.906   1_556  S
O97         C103   1.237       .  A
O98        Ni116   1.862   1_556  S
O98         C100   1.256       .  A
Ni99        O102   1.915       .  S
Ni99        O104   1.924   1_556  S
C100        O414   1.322   1_455  A
C100        C216   1.557       .  S
O101       Ni117   2.021   1_556  S
O101        C107   1.290       .  A
O102        C411   1.264       .  A
C103        C129   1.410       .  S
O104        C410   1.275       .  A
O105       Ni116   1.862       .  S
C106        O112   1.257   1_655  A
C106        O408   1.282       .  A
C106        C276   1.478       .  S
C107        O406   1.256   1_455  A
C107        C196   1.536       .  S
H108        O109   0.967       .  S
O109       Ni117   2.061       .  S
O109       Ni116   1.887       .  S
O109       Ni415   1.879   1_455  S
O110       Ni111   2.004       .  S
O110        C404   1.275       .  A
Ni111       O115   1.891       .  S
Ni111       O113   1.962   1_556  S
Ni111       O413   1.801       .  S
O112       Ni117   1.880       .  S
O113        C400   1.290       .  A
C114        O115   1.221       .  A
C114        C140   1.555       .  S
Ni117       O399   1.847   1_454  S
O119       Ni125   1.833       .  S
O119        C140   1.279       .  A
O120       Ni143   1.932       .  S
O120        C129   1.211       .  A
O121       Ni125   1.859       .  S
O121       Ni143   1.797       .  S
O121       Ni137   2.054       .  S
O121        H144   0.935       .  S
C122        O139   1.291       .  A
C122        O131   1.282       .  A
C122        C165   1.451       .  S
O123       Ni142   1.920       .  S
O123        C129   1.227       .  A
O124       Ni142   1.906       .  S
O124        C126   1.240       .  A
Ni125       O128   1.924       .  S
Ni125       O130   1.909       .  S
C126        O136   1.275       .  A
C126        C256   1.509       .  S
O127       Ni143   1.959       .  S
O127        C133   1.282       .  A
O128        C133   1.264       .  A
O130        C132   1.273       .  A
O131       Ni142   1.882       .  S
C132        O138   1.281       .  A
C132        C145   1.516       .  S
C133        C236   1.502   1_556  S
H134        O135   0.967       .  S
O135       Ni143   2.075       .  S
O135       Ni137   1.804       .  S
O135       Ni142   1.966       .  S
O136       Ni137   2.012       .  S
Ni137       O141   1.894       .  S
Ni137       O139   1.953       .  S
O138       Ni143   1.963       .  S
C140        O141   1.222       .  A
C145        C146   1.423       .  A
C145        C150   1.414       .  A
C146        C147   1.415       .  A
C146       Br162   1.920       .  S
C147        C148   1.408       .  A
C147        H151   1.083       .  S
C148        C149   1.405       .  A
C148        C152   1.502       .  S
C149        C150   1.403       .  A
C149       Br161   1.912       .  S
C150        H153   1.083       .  S
C152        C154   1.404       .  A
C152        C158   1.415       .  A
C154        C155   1.405       .  A
C154        H159   1.083       .  S
C155        C156   1.410       .  A
C155       Br163   1.914       .  S
C156        C157   1.407       .  A
C157        C158   1.414       .  A
C157        H160   1.083       .  S
C158       Br164   1.916       .  S
C165        C166   1.402       .  A
C165        C170   1.406       .  A
C166        C167   1.370       .  A
C166       Br182   1.911       .  S
C167        C168   1.388       .  A
C167        H171   1.079       .  S
C168        C169   1.406       .  A
C168        C172   1.456       .  S
C169        C170   1.403       .  A
C169       Br181   1.913       .  S
C170        H173   1.083       .  S
C172        C174   1.393       .  A
C172        C178   1.414       .  A
C174        C175   1.392       .  A
C174        H179   1.083       .  S
C175        C176   1.415       .  A
C175       Br183   1.917       .  S
C176        C177   1.390       .  A
C177        C178   1.384       .  A
C177        H180   1.083       .  S
C178       Br184   1.923       .  S
C185        C186   1.412       .  A
C185        C190   1.405       .  A
C186        C187   1.407       .  A
C186       Br506   1.914       .  S
C187        C188   1.404       .  A
C187        H495   1.083       .  S
C188        C189   1.416       .  A
C188        C192   1.505       .  S
C189        C190   1.413       .  A
C189       Br201   1.914   1_455  S
C190        H193   1.083   1_455  S
H191        C491   1.079       .  S
C192        C194   1.410       .  A
C192        C198   1.401   1_455  A
C194        C195   1.422       .  A
C194        H199   1.083       .  S
C195        C196   1.418       .  A
C195       Br203   1.891       .  S
C196        C197   1.420   1_455  A
C197        C198   1.399       .  A
C197        H504   1.074       .  S
C198       Br508   1.922       .  S
H200        C501   1.083       .  S
Br202       C490   1.917       .  S
Br204       C502   1.922       .  S
C205        C206   1.413   1_455  A
C205        C210   1.417       .  A
C206        C207   1.432       .  A
C206       Br526   1.897       .  S
C207        C208   1.419   1_655  A
C207        H515   1.082       .  S
C208        C209   1.437       .  A
C208        C212   1.574       .  S
C209        C210   1.439       .  A
C209       Br221   1.919       .  S
C210        H213   1.082       .  S
H211        C511   1.082       .  S
C212        C214   1.420       .  A
C212        C218   1.432       .  A
C214        C215   1.435       .  A
C214        H219   1.082   1_455  S
C215        C216   1.425       .  A
C215       Br223   1.913   1_455  S
C216        C217   1.417       .  A
C217        C218   1.438       .  A
C217        H220   1.083       .  S
C218       Br224   1.914       .  S
Br222       C510   1.913       .  S
C225        C226   1.413       .  A
C225        C230   1.410       .  A
C226        C227   1.417       .  A
C226       Br242   1.916       .  S
C227        C228   1.410       .  A
C227        H231   1.076       .  S
C228        C229   1.413       .  A
C228        C232   1.515       .  S
C229        C230   1.406       .  A
C229       Br241   1.921       .  S
C230        H233   1.078       .  S
C232        C234   1.410       .  A
C232        C238   1.417       .  A
C234        C235   1.414       .  A
C234        H239   1.083       .  S
C235        C236   1.415       .  A
C235       Br243   1.922       .  S
C236        C237   1.405       .  A
C237        C238   1.408       .  A
C237        H240   1.083   1_554  S
C238       Br244   1.917       .  S
C245        C246   1.416       .  A
C245        C250   1.409       .  A
C246        C247   1.416       .  A
C246       Br262   1.918       .  S
C247        C248   1.414       .  A
C247        H251   1.083       .  S
C248        C249   1.418       .  A
C248        C252   1.528       .  S
C249        C250   1.415       .  A
C249       Br261   1.913       .  S
C250        H253   1.083       .  S
C252        C254   1.414       .  A
C252        C258   1.419   1_554  A
C254        C255   1.416       .  A
C254        H259   1.082       .  S
C255        C256   1.412   1_554  A
C255       Br263   1.915       .  S
C256        C257   1.410       .  A
C257        C258   1.414       .  A
C257        H260   1.084       .  S
C258       Br264   1.920       .  S
C265        C270   1.410       .  A
C265        C570   1.409   1_455  A
C265        N321   1.447       .  S
C266        C267   1.406       .  A
C266        C569   1.411       .  A
C266       Br282   1.916       .  S
C267        C572   1.408       .  A
C267        H271   1.080       .  S
C268        C269   1.405   1_655  A
C268        C571   1.406       .  A
C268        C272   1.482       .  S
C269        C270   1.402       .  A
C269       Br281   1.916       .  S
C270        H273   1.081       .  S
C272        C274   1.388   1_655  A
C272        C582   1.411       .  A
C274        C275   1.387       .  A
C274        H279   1.084       .  S
C275        C276   1.419   1_455  A
C275       Br283   1.903       .  S
C276        C581   1.397       .  A
C277        C278   1.415       .  A
C277        C580   1.407       .  A
C277        H280   1.083       .  S
C278        C576   1.418       .  A
C278       Br284   1.913       .  S
C285        C286   1.414   1_455  A
C285        C290   1.410       .  A
C286        C287   1.402       .  A
C286       Br606   1.912       .  S
C287        C288   1.401   1_655  A
C287        H595   1.084       .  S
C288        C289   1.399       .  A
C288        C292   1.466       .  S
C289        C290   1.387       .  A
C289       Br301   1.920       .  S
C290        H293   1.082       .  S
H291        C591   1.083       .  S
C292        C298   1.405       .  A
C292        C598   1.402       .  A
C294        C295   1.385       .  A
C294        C596   1.401       .  A
C294        H299   1.084       .  S
C295        C600   1.403       .  A
C295       Br303   1.918       .  S
C296        C297   1.402       .  A
C296        C599   1.402       .  A
C296        N318   1.422       .  S
C297        C298   1.401       .  A
C297        H300   1.083       .  S
C298       Br304   1.915   1_455  S
Br302       C590   1.919       .  S
C305        C307   1.594       .  S
C305        C309   1.607       .  S
C305        C308   1.568   1_565  S
C305        C328   1.865       .  S
C306        C310   1.621       .  S
C306        C312   1.566   1_655  S
C306        C311   1.562   1_665  S
C306        C329   1.863       .  S
C307        C315   1.388       .  A
C308        C319   1.367       .  A
C309        C323   1.395       .  A
C310        C313   1.406       .  A
C311        C317   1.365   1_455  A
C312        C320   1.362   1_455  A
C313        H326   1.076       .  S
N314        C315   1.361       .  A
N314        N360   1.430       .  S
C315        H316   1.076       .  S
C317        H327   1.082       .  S
C317        N318   1.353   1_655  A
C319        H325   1.081       .  S
C320        H322   1.073       .  S
C320        N321   1.348   1_655  A
C323        H324   1.075       .  S
C328        C330   1.595   1_565  S
C328        C332   1.620   1_565  S
C328        C331   1.575       .  S
C329        C333   1.573   1_565  S
C329        C335   1.614   1_565  S
C329        C334   1.612       .  S
C330        C338   1.392       .  A
C330        C333   1.460       .  A
C331        C342   1.377       .  A
C331        C334   1.460       .  A
C332        C346   1.408       .  A
C332        C335   1.471       .  A
C333        C336   1.378       .  A
C334        C340   1.410       .  A
C335        C343   1.406       .  A
C336        H349   1.078       .  S
C336        N337   1.357       .  A
N337        C338   1.370       .  A
N337        N383   1.426       .  S
C338        H339   1.080       .  S
C340        H350   1.077       .  S
C340        N341   1.366       .  A
N341        C342   1.350       .  A
N341        C529   1.465       .  S
C342        H348   1.070       .  S
C343        H345   1.082       .  S
C343        N344   1.376       .  A
N344        C346   1.378       .  A
N344        C549   1.493       .  S
C346        H347   1.081       .  S
C351        C353   1.596       .  S
C351        C355   1.611   1_565  S
C351        C354   1.583       .  S
C351        C374   1.861       .  S
C352        C356   1.582       .  S
C352        C358   1.615   1_565  S
C352        C357   1.577       .  S
C353        C361   1.395       .  A
C353        C356   1.461       .  A
C354        C365   1.376       .  A
C354        C357   1.467       .  A
C355        C369   1.400       .  A
C355        C358   1.471       .  A
C356        C359   1.383       .  A
C357        C363   1.379       .  A
C358        C366   1.412       .  A
C359        N360   1.361       .  A
N360        C361   1.369       .  A
C361        H362   1.079       .  S
C363        N364   1.359       .  A
N364        C365   1.355       .  A
N364        C489   1.438       .  S
C365        H371   1.078       .  S
C366        N367   1.353       .  A
N367        C369   1.356       .  A
N367        C509   1.473       .  S
C369        H370   1.074       .  S
C374        C376   1.580   1_565  S
C374        C378   1.591       .  S
C374        C377   1.598   1_565  S
C375        C379   1.606   1_565  S
C375        C381   1.573       .  S
C375        C380   1.567   1_565  S
C376        C384   1.378       .  A
C376        C379   1.467       .  A
C377        C388   1.377       .  A
C377        C380   1.476       .  A
C378        C392   1.388       .  A
C378        C381   1.465       .  A
C379        C382   1.392       .  A
C380        C386   1.379       .  A
C381        C389   1.374       .  A
C382        H395   1.077       .  S
C382        N383   1.369       .  A
N383        C384   1.357       .  A
C384        H385   1.076       .  S
C386        H396   1.076       .  S
C386        N387   1.343       .  A
N387        C388   1.347       .  A
N387        C480   1.439       .  S
C388        H394   1.068       .  S
C389        H391   1.080       .  S
C389        N390   1.354       .  A
N390        C392   1.363       .  A
N390        C460   1.441       .  S
C392        H393   1.081       .  S
O397       Ni403   1.821       .  S
O397        C418   1.284       .  A
O398       Ni421   1.925       .  S
O398        C407   1.213       .  A
O399       Ni403   1.883       .  S
O399       Ni415   2.084   1_556  S
O399        H422   0.936   1_655  S
C400        O409   1.278       .  A
C400        C589   1.484       .  S
O401       Ni420   1.918       .  S
O401        C407   1.233       .  A
O402       Ni420   1.931       .  S
O402        C404   1.251       .  A
Ni403       O406   1.890       .  S
Ni403       O408   1.961   1_556  S
C404        C520   1.521       .  S
O405       Ni421   1.958       .  S
O405        C411   1.283       .  A
C407        C433   1.420       .  S
O409       Ni420   1.889   1_554  S
C410        O416   1.279       .  A
C410        C580   1.500       .  S
C411        C500   1.499       .  S
H412        O413   0.967   1_554  S
O413       Ni421   2.086       .  S
O413       Ni420   1.983       .  S
O414       Ni415   2.151   1_556  S
Ni415       O419   1.874   1_554  S
Ni415       O417   1.960       .  S
O416       Ni421   1.945   1_554  S
C418        O419   1.223       .  A
C418        C444   1.576       .  S
O423       Ni429   1.822       .  S
O423        C444   1.271       .  A
O424       Ni447   1.873       .  S
O424        C433   1.226       .  A
O425       Ni429   1.890       .  S
O425       Ni447   1.846       .  S
O425       Ni441   2.076       .  S
O425        H448   0.937       .  S
C426        O443   1.286       .  A
C426        O435   1.257       .  A
C426        C469   1.468       .  S
O427       Ni446   1.908       .  S
O427        C433   1.221       .  A
O428       Ni446   1.861       .  S
O428        C430   1.255       .  A
Ni429       O432   1.917       .  S
Ni429       O434   1.921       .  S
C430        O440   1.322       .  A
C430        C560   1.543       .  S
O431       Ni447   1.995       .  S
O431        C437   1.287       .  A
O432        C437   1.257       .  A
O434        C436   1.274       .  A
O435       Ni446   1.837       .  S
C436        O442   1.273       .  A
C436        C449   1.487       .  S
C437        C540   1.531       .  S
H438        O439   0.966       .  S
O439       Ni447   2.061       .  S
O439       Ni441   1.892       .  S
O439       Ni446   1.906       .  S
O440       Ni441   2.155       .  S
Ni441       O445   1.895       .  S
Ni441       O443   1.973       .  S
O442       Ni447   1.921       .  S
C444        O445   1.234       .  A
C449        C450   1.413       .  A
C449        C454   1.404       .  A
C450        C451   1.402       .  A
C450       Br466   1.917       .  S
C451        C452   1.402       .  A
C451        H455   1.083       .  S
C452        C453   1.407       .  A
C452        C456   1.483       .  S
C453        C454   1.399       .  A
C453       Br465   1.910       .  S
C454        H457   1.083       .  S
C456        C458   1.403       .  A
C456        C462   1.407       .  A
C458        C459   1.399       .  A
C458        H463   1.084       .  S
C459        C460   1.409       .  A
C459       Br467   1.915       .  S
C460        C461   1.406       .  A
C461        C462   1.406       .  A
C461        H464   1.083       .  S
C462       Br468   1.916       .  S
C469        C470   1.415       .  A
C469        C474   1.392       .  A
C470        C471   1.393       .  A
C470       Br486   1.922       .  S
C471        C472   1.396       .  A
C471        H475   1.083       .  S
C472        C473   1.414       .  A
C472        C476   1.480       .  S
C473        C474   1.398       .  A
C473       Br485   1.905       .  S
C474        H477   1.081       .  S
C476        C478   1.399       .  A
C476        C482   1.415       .  A
C478        C479   1.403       .  A
C478        H483   1.083       .  S
C479        C480   1.415       .  A
C479       Br487   1.914       .  S
C480        C481   1.399       .  A
C481        C482   1.402       .  A
C481        H484   1.083       .  S
C482       Br488   1.921       .  S
C489        C490   1.409       .  A
C489        C494   1.401       .  A
C490        C491   1.401       .  A
C491        C492   1.403       .  A
C492        C493   1.414       .  A
C492        C496   1.495       .  S
C493        C494   1.404       .  A
C493       Br505   1.919       .  S
C494        H497   1.083       .  S
C496        C498   1.408       .  A
C496        C502   1.410       .  A
C498        C499   1.409       .  A
C498        H503   1.083       .  S
C499        C500   1.408       .  A
C499       Br507   1.906       .  S
C500        C501   1.409       .  A
C501        C502   1.401       .  A
C509        C510   1.414       .  A
C509        C514   1.409       .  A
C510        C511   1.421       .  A
C511        C512   1.417       .  A
C512        C513   1.423       .  A
C512        C516   1.541       .  S
C513        C514   1.420       .  A
C513       Br525   1.919       .  S
C514        H517   1.078       .  S
C516        C518   1.416       .  A
C516        C522   1.423       .  A
C518        C519   1.420       .  A
C518        H523   1.083       .  S
C519        C520   1.416       .  A
C519       Br527   1.920       .  S
C520        C521   1.409       .  A
C521        C522   1.420       .  A
C521        H524   1.083       .  S
C522       Br528   1.916       .  S
C529        C530   1.400       .  A
C529        C534   1.408       .  A
C530        C531   1.430       .  A
C530       Br546   1.916       .  S
C531        C532   1.421       .  A
C531        H535   1.080       .  S
C532        C533   1.421       .  A
C532        C536   1.543       .  S
C533        C534   1.417       .  A
C533       Br545   1.921       .  S
C534        H537   1.082       .  S
C536        C538   1.416       .  A
C536        C542   1.421       .  A
C538        C539   1.427       .  A
C538        H543   1.083       .  S
C539        C540   1.423   1_554  A
C539       Br547   1.916       .  S
C540        C541   1.410       .  A
C541        C542   1.417   1_556  A
C541        H544   1.081       .  S
C542       Br548   1.916   1_554  S
C549        C550   1.426       .  A
C549        C554   1.417       .  A
C550        C551   1.430       .  A
C550       Br566   1.915       .  S
C551        C552   1.417       .  A
C551        H555   1.082       .  S
C552        C553   1.422       .  A
C552        C556   1.560       .  S
C553        C554   1.430       .  A
C553       Br565   1.903       .  S
C554        H557   1.083       .  S
C556        C558   1.418       .  A
C556        C562   1.423   1_554  A
C558        C559   1.429       .  A
C558        H563   1.081       .  S
C559        C560   1.422   1_554  A
C559       Br567   1.910       .  S
C560        C561   1.415       .  A
C561        C562   1.428       .  A
C561        H564   1.083       .  S
C562       Br568   1.915       .  S
C569        C574   1.413       .  A
C570        C571   1.403       .  A
C570       Br586   1.916       .  S
C571        H575   1.082       .  S
C572        C573   1.408       .  A
C572        C576   1.500       .  S
C573        C574   1.408       .  A
C573       Br585   1.915       .  S
C574        H577   1.078       .  S
C576        C578   1.394       .  A
C578        C579   1.395       .  A
C578        H583   1.085       .  S
C579        C580   1.418       .  A
C579       Br587   1.902   1_554  S
C581        C582   1.406       .  A
C581        H584   1.083       .  S
C582       Br588   1.899       .  S
C589        C590   1.416       .  A
C589        C594   1.407       .  A
C590        C591   1.401       .  A
C591        C592   1.399       .  A
C592        C593   1.402       .  A
C592        C596   1.471       .  S
C593        C594   1.393       .  A
C593       Br605   1.917       .  S
C594        H597   1.079       .  S
C596        C602   1.408       .  A
C598        C599   1.385       .  A
C598        H603   1.084       .  S
C599       Br607   1.919       .  S
C600        C601   1.403       .  A
C601        C602   1.403       .  A
C601        H604   1.083       .  S
C602       Br608   1.915       .  S
