geometry optimzed in LAMMPS
_audit_creation_date              2020-11-30 
_audit_creation_method            'lammps2cif' 
_symmetry_space_group_name_H-M    'P1' 
_symmetry_Int_Tables_number       1 
_symmetry_cell_setting            triclinic 
loop_ 
_symmetry_equiv_pos_as_xyz 
  x,y,z 
_cell_length_a                    41.34716282 
_cell_length_b                    41.47404015922371 
_cell_length_c                    41.34087476085708 
_cell_angle_alpha                 89.70903034693079 
_cell_angle_beta                  89.81452484122974 
_cell_angle_gamma                 90.33018592002999 
loop_ 
_atom_site_label 
_atom_site_type_symbol 
_atom_site_fract_x 
_atom_site_fract_y 
_atom_site_fract_z 
_atom_site_charge 
In1        In  0.49249956  0.39084425  0.91829052     1.36900
C2          C  0.49674294  0.36736230  0.85783931     0.76800
O3          O  0.43895988  0.40070844  0.90889163    -0.61700
O4          O  0.46551161  0.43149522  0.94014296    -0.52600
C5          C  0.49563307  0.36255826  0.97587007     0.69400
O6          O  0.46993924  0.36217577  0.95949177    -0.47500
C7          C  0.54091901  0.43362579  0.91678339     0.74100
O8          O  0.49230911  0.39617037  0.86562017    -0.59300
O9          O  0.51153421  0.44130210  0.91667736    -0.49400
O10         O  0.49748181  0.34821195  0.88177044    -0.55700
C11         C  0.43913771  0.42587676  0.92606525     0.84300
O12         O  0.52045042  0.37110508  0.96027465    -0.57600
O13         O  0.54605570  0.40366203  0.91765121    -0.60900
In14       In  0.37389057  0.50017588  0.92327201     1.36900
C15         C  0.35179195  0.50132140  0.86193658     0.76800
O16         O  0.38644834  0.55400485  0.92026977    -0.61700
O17         O  0.42392502  0.51975930  0.92562380    -0.52600
C18         C  0.34576698  0.50277353  0.98110210     0.69400
O19         O  0.34781789  0.47669233  0.96564923    -0.47500
C20         C  0.41274778  0.44937685  0.92764163     0.74100
O21         O  0.33186080  0.49832209  0.88513871    -0.59300
O22         O  0.41590991  0.47454639  0.94421724    -0.49400
O23         O  0.38059688  0.50334667  0.87097294    -0.55700
C24         C  0.41650156  0.54888796  0.92230407     0.84300
O25         O  0.35066227  0.52766969  0.96415107    -0.57600
O26         O  0.38736471  0.44833161  0.91066806    -0.60900
In27       In  0.49106022  0.61578348  0.91637608     1.36900
C28         C  0.48816887  0.64273137  0.85780387     0.76800
O29         O  0.53992689  0.60004437  0.89664473    -0.61700
O30         O  0.52206619  0.57831285  0.93972230    -0.52600
C31         C  0.49321068  0.64677435  0.97191150     0.69400
O32         O  0.51798285  0.64376203  0.95439167    -0.47500
C33         C  0.44190087  0.57371760  0.92030445     0.74100
O34         O  0.48288434  0.61354572  0.86413616    -0.59300
O35         O  0.47122655  0.56589817  0.91998920    -0.49400
O36         O  0.49353864  0.65999301  0.88234241    -0.55700
C37         C  0.54400813  0.57918039  0.91854997     0.84300
O38         O  0.46689402  0.63995323  0.95821805    -0.57600
O39         O  0.43697547  0.60369543  0.91848366    -0.60900
In40       In  0.61061792  0.50545107  0.91607789     1.36900
C41         C  0.64130669  0.50510511  0.85920830     0.76800
O42         O  0.59620721  0.45248942  0.91957862    -0.61700
O43         O  0.55976648  0.48754771  0.91210364    -0.52600
C44         C  0.63926125  0.50274229  0.97308812     0.69400
O45         O  0.63659992  0.52885666  0.95766093    -0.47500
C46         C  0.57030778  0.55558292  0.91854862     0.74100
O47         O  0.65289855  0.52074820  0.88263485    -0.59300
O48         O  0.57302292  0.53511247  0.94092949    -0.49400
O49         O  0.61740412  0.48771248  0.86639929    -0.55700
C50         C  0.56645184  0.45827367  0.91606614     0.84300
O51         O  0.63380214  0.47781416  0.95669697    -0.57600
O52         O  0.58986235  0.55192878  0.89536797    -0.60900
In53       In  0.49836826  0.92926001  0.37724323     1.36900
C54         C  0.49503742  0.87058894  0.35157230     0.76800
O55         O  0.55032043  0.91603982  0.38986194    -0.61700
O56         O  0.52459007  0.94916111  0.41926367    -0.52600
C57         C  0.49849855  0.98647939  0.34946099     0.69400
O58         O  0.52377911  0.96973264  0.35108104    -0.47500
C59         C  0.44975345  0.92800345  0.41989805     0.74100
O60         O  0.49417546  0.87741326  0.38100658    -0.59300
O61         O  0.47916143  0.92780807  0.42736587    -0.49400
O62         O  0.49815504  0.89476489  0.33304760    -0.55700
C63         C  0.54982751  0.93281426  0.41531734     0.84300
O64         O  0.47261041  0.97143920  0.35554025    -0.57600
O65         O  0.44436572  0.92919688  0.38982460    -0.60900
In66       In  0.38333043  0.92688489  0.49479452     1.36900
C67         C  0.35717106  0.86719425  0.49473399     0.76800
O68         O  0.39469888  0.92705916  0.44052926    -0.61700
O69         O  0.43303701  0.92647714  0.47457267    -0.52600
C70         C  0.35610313  0.98472118  0.49355189     0.69400
O71         O  0.35879334  0.96870439  0.51936618    -0.47500
C72         C  0.42180798  0.93225053  0.54628155     0.74100
O73         O  0.33943282  0.89149893  0.49949658    -0.59300
O74         O  0.42586810  0.94770979  0.52032312    -0.49400
O75         O  0.38620104  0.87428265  0.48928967    -0.55700
C76         C  0.42490417  0.92708546  0.44530404     0.84300
O77         O  0.36066178  0.96864978  0.46816890    -0.57600
O78         O  0.39678793  0.91461667  0.54696261    -0.60900
In79       In  0.49762356  0.92899684  0.61040424     1.36900
C80         C  0.49641519  0.86974792  0.63632221     0.76800
O81         O  0.44557352  0.91629023  0.59726338    -0.61700
O82         O  0.47186339  0.94959674  0.56801700    -0.52600
C83         C  0.50002606  0.98599381  0.63902761     0.69400
O84         O  0.52519112  0.97032291  0.63244140    -0.47500
C85         C  0.54624563  0.92686775  0.56783216     0.74100
O86         O  0.49764468  0.87655085  0.60678606    -0.59300
O87         O  0.51715670  0.93117211  0.56053581    -0.49400
O88         O  0.49603736  0.89411615  0.65460576    -0.55700
C89         C  0.44639833  0.93321977  0.57176544     0.84300
O90         O  0.47410692  0.96999989  0.63709752    -0.57600
O91         O  0.55145763  0.92388732  0.59781637    -0.60900
In92       In  0.61190545  0.92517047  0.49239238     1.36900
C93         C  0.63311360  0.86377463  0.49313164     0.76800
O94         O  0.60091519  0.92257923  0.54671241    -0.61700
O95         O  0.56260898  0.92799184  0.51313503    -0.52600
C96         C  0.64003762  0.98323511  0.49369463     0.69400
O97         O  0.63545142  0.96663422  0.51890781    -0.47500
C98         C  0.57428731  0.93158100  0.44081612     0.74100
O99         O  0.60425680  0.87271104  0.49184640    -0.59300
O100        O  0.56869407  0.94438179  0.46777735    -0.49400
O101        O  0.65325870  0.88693214  0.49340211    -0.55700
C102        C  0.57085458  0.92565009  0.54226708     0.84300
O103        O  0.63693833  0.96761967  0.46778692    -0.57600
O104        O  0.60065958  0.91632603  0.43910267    -0.60900
In105      In  0.92007659  0.50038318  0.60298052     1.36900
C106        C  0.86338994  0.50066582  0.63450200     0.76800
O107        O  0.89380975  0.54048486  0.57561975    -0.61700
O108        O  0.94390238  0.53473764  0.56752137    -0.52600
C109        C  0.97720419  0.49900496  0.63285584     0.69400
O110        O  0.96142654  0.47381539  0.62644902    -0.47500
C111        C  0.92170544  0.45119978  0.56137245     0.74100
O112        O  0.88620762  0.51892262  0.64350103    -0.59300
O113        O  0.92542200  0.48027400  0.55339305    -0.49400
O114        O  0.87127793  0.48085650  0.61307599    -0.55700
C115        C  0.91854621  0.54969076  0.56015762     0.84300
O116        O  0.96124753  0.52464024  0.62989959    -0.57600
O117        O  0.91704605  0.44656667  0.59122907    -0.60900
In118      In  0.91823547  0.61512552  0.48342083     1.36900
C119        C  0.86453758  0.65107086  0.48037105     0.76800
O120        O  0.92489630  0.59999388  0.43088217    -0.61700
O121        O  0.91001627  0.56486508  0.46528011    -0.52600
C122        C  0.97671657  0.64210531  0.48374894     0.69400
O123        O  0.96271559  0.63425062  0.45797462    -0.47500
C124        C  0.91804495  0.57419592  0.53418339     0.74100
O125        O  0.87492452  0.63383219  0.45784159    -0.59300
O126        O  0.94321071  0.58210908  0.51876865    -0.49400
O127        O  0.88397261  0.65396495  0.50360218    -0.55700
C128        C  0.91778799  0.57087396  0.43641853     0.84300
O129        O  0.95867974  0.64202056  0.50836131    -0.57600
O130        O  0.89262392  0.58765023  0.52415984    -0.60900
In131      In  0.92306228  0.38349051  0.48807520     1.36900
C132        C  0.86189737  0.36187518  0.48752610     0.76800
O133        O  0.91500999  0.39659377  0.54139762    -0.61700
O134        O  0.93128895  0.43234663  0.50842976    -0.52600
C135        C  0.97958239  0.35392699  0.49012278     0.69400
O136        O  0.96309792  0.35887547  0.51520848    -0.47500
C137        C  0.92990931  0.42163193  0.43665646     0.74100
O138        O  0.87138003  0.38927278  0.47873207    -0.59300
O139        O  0.93801981  0.42930454  0.46493351    -0.49400
O140        O  0.88450113  0.34290573  0.49503895    -0.55700
C141        C  0.92279317  0.42576320  0.53685109     0.84300
O142        O  0.96439099  0.35756140  0.46404131    -0.57600
O143        O  0.91939477  0.39302514  0.43370150    -0.60900
In144      In  0.92423850  0.49583597  0.37085644     1.36900
C145        C  0.86514585  0.49672002  0.34356015     0.76800
O146        O  0.91940107  0.44217828  0.38265116    -0.61700
O147        O  0.94061177  0.47413817  0.41685661    -0.52600
C148        C  0.98371694  0.49754938  0.34622109     0.69400
O149        O  0.96737405  0.52259027  0.35102740    -0.47500
C150        C  0.91936887  0.54522126  0.41212379     0.74100
O151        O  0.88971244  0.50333041  0.32644336    -0.59300
O152        O  0.91434461  0.51631320  0.41979412    -0.49400
O153        O  0.87196147  0.48754782  0.37155889    -0.55700
C154        C  0.93064551  0.44604043  0.41085327     0.84300
O155        O  0.96766314  0.47162206  0.34784132    -0.57600
O156        O  0.92650671  0.54957371  0.38270394    -0.60900
In157      In  0.49315943  0.38854410  0.06945775     1.36900
C158        C  0.49501637  0.36141037  0.12840529     0.76800
O159        O  0.54704080  0.40091466  0.07121488    -0.61700
O160        O  0.51258860  0.43858515  0.07001386    -0.52600
C161        C  0.49565131  0.36194317  0.01143355     0.69400
O162        O  0.46990699  0.36181863  0.02791097    -0.47500
C163        C  0.44124597  0.42582929  0.06458601     0.74100
O164        O  0.49368294  0.34379083  0.10353230    -0.59300
O165        O  0.46637748  0.42944374  0.04772419    -0.49400
O166        O  0.49482027  0.39105091  0.12229202    -0.55700
C167        C  0.54193007  0.43090543  0.07030577     0.84300
O168        O  0.52070462  0.36920004  0.02708554    -0.57600
O169        O  0.44116737  0.40118537  0.08270205    -0.60900
In170      In  0.38070189  0.50351741  0.07218858     1.36900
C171        C  0.36130184  0.50287790  0.13479704     0.76800
O172        O  0.39299379  0.45147284  0.08463899    -0.61700
O173        O  0.41968508  0.47592861  0.04790794    -0.52600
C174        C  0.34772254  0.50373708  0.01677053     0.69400
O175        O  0.35097123  0.47851095  0.03353039    -0.47500
C176        C  0.42393637  0.55229119  0.06894509     0.74100
O177        O  0.34058366  0.50318818  0.11227040    -0.59300
O178        O  0.43101927  0.52300154  0.06610581    -0.49400
O179        O  0.38993820  0.50374664  0.12473364    -0.55700
C180        C  0.41654969  0.45098250  0.06512812     0.84300
O181        O  0.35470631  0.52934739  0.03155611    -0.57600
O182        O  0.39410558  0.55738384  0.07326390    -0.60900
In183      In  0.49844707  0.62077190  0.06452027     1.36900
C184        C  0.50059666  0.64764244  0.12371868     0.76800
O185        O  0.44436892  0.60749535  0.06824757    -0.61700
O186        O  0.47864559  0.57019176  0.06564384    -0.52600
C187        C  0.49530339  0.64849297  0.00718485     0.69400
O188        O  0.52186648  0.64566105  0.02178625    -0.47500
C189        C  0.54953789  0.58257737  0.05781551     0.74100
O190        O  0.49584809  0.66544252  0.09930865    -0.59300
O191        O  0.52341290  0.57883115  0.04267127    -0.49400
O192        O  0.50491048  0.61862387  0.11668402    -0.55700
C193        C  0.44931337  0.57750586  0.06756747     0.84300
O194        O  0.47061069  0.64416953  0.02456782    -0.57600
O195        O  0.55116695  0.60808654  0.07441000    -0.60900
In196      In  0.60983226  0.50417390  0.06547541     1.36900
C197        C  0.63418490  0.50276822  0.12508270     0.76800
O198        O  0.59917765  0.55720031  0.07529477    -0.61700
O199        O  0.56833171  0.53053775  0.04416775    -0.52600
C200        C  0.63893376  0.50189356  0.00852261     0.69400
O201        O  0.63850202  0.52730767  0.02506921    -0.47500
C202        C  0.56716174  0.45582246  0.06870122     0.74100
O203        O  0.60483896  0.50495207  0.11800192    -0.59300
O204        O  0.55972675  0.48485017  0.06435761    -0.49400
O205        O  0.65298455  0.50210254  0.10089756    -0.55700
C206        C  0.57367488  0.55674595  0.05847789     0.84300
O207        O  0.63082285  0.47673196  0.02374231    -0.57600
O208        O  0.59716424  0.45070153  0.07107806    -0.60900
In209      In  0.49941653  0.07895722  0.61183979     1.36900
C210        C  0.49536631  0.13728210  0.63951359     0.76800
O211        O  0.55047387  0.09422791  0.59631511    -0.61700
O212        O  0.52554881  0.05821004  0.56982287    -0.52600
C213        C  0.50021614  0.02137996  0.63966584     0.69400
O214        O  0.52574076  0.03729458  0.63450448    -0.47500
C215        C  0.45124255  0.07837506  0.56872115     0.74100
O216        O  0.48345650  0.12920761  0.61296153    -0.59300
O217        O  0.48001625  0.08609387  0.56214854    -0.49400
O218        O  0.50808400  0.11422211  0.65490006    -0.55700
C219        C  0.55051840  0.07543840  0.57233565     0.84300
O220        O  0.47452618  0.03743909  0.63725108    -0.57600
O221        O  0.44637582  0.07076300  0.59803126    -0.60900
In222      In  0.61444995  0.07771667  0.49581783     1.36900
C223        C  0.63858311  0.13787037  0.49450793     0.76800
O224        O  0.60392261  0.07739454  0.44146370    -0.61700
O225        O  0.56528253  0.07980671  0.47533097    -0.52600
C226        C  0.64036353  0.01888457  0.49442754     0.69400
O227        O  0.63682008  0.03434869  0.52037217    -0.47500
C228        C  0.57557042  0.07476639  0.54716110     0.74100
O229        O  0.65757926  0.11438154  0.49892123    -0.59300
O230        O  0.57082414  0.05944148  0.52138893    -0.49400
O231        O  0.60974019  0.12962056  0.49054881    -0.55700
C232        C  0.57372190  0.07888368  0.44612357     0.84300
O233        O  0.63695230  0.03571788  0.46921247    -0.57600
O234        O  0.60191002  0.09038023  0.54804912    -0.60900
In235      In  0.38500713  0.07792361  0.49347842     1.36900
C236        C  0.36042373  0.13817457  0.49300399     0.76800
O237        O  0.39681186  0.07173193  0.54741448    -0.61700
O238        O  0.43402980  0.08493502  0.51448965    -0.52600
C239        C  0.35672791  0.02023226  0.49332143     0.69400
O240        O  0.35999658  0.03633688  0.51893260    -0.47500
C241        C  0.42396672  0.07156663  0.44268458     0.74100
O242        O  0.34152129  0.11418070  0.49079424    -0.59300
O243        O  0.42855970  0.05765909  0.46940154    -0.49400
O244        O  0.38943421  0.13041963  0.49606397    -0.55700
C245        C  0.42644726  0.07833476  0.54323482     0.84300
O246        O  0.36170239  0.03605678  0.46766156    -0.57600
O247        O  0.39787469  0.08716251  0.44079092    -0.60900
In248      In  0.50018239  0.07825436  0.37895470     1.36900
C249        C  0.50039181  0.13750150  0.35314930     0.76800
O250        O  0.44807278  0.08904024  0.39236950    -0.61700
O251        O  0.47494636  0.05643891  0.42146288    -0.52600
C252        C  0.49968750  0.02172393  0.35002084     0.69400
O253        O  0.52568276  0.03675119  0.35542133    -0.47500
C254        C  0.54904694  0.07909627  0.42078648     0.74100
O255        O  0.50286220  0.13079463  0.38259556    -0.59300
O256        O  0.51969328  0.08001308  0.42853646    -0.49400
O257        O  0.49826634  0.11312771  0.33503279    -0.55700
C258        C  0.44902391  0.07173109  0.41759366     0.84300
O259        O  0.47440489  0.03818826  0.35325453    -0.57600
O260        O  0.55439894  0.07799968  0.39066102    -0.60900
In261      In  0.07536953  0.50039222  0.37831768     1.36900
C262        C  0.13631799  0.50194012  0.35611633     0.76800
O263        O  0.08764993  0.55203592  0.39209366    -0.61700
O264        O  0.05180491  0.52636582  0.41883986    -0.52600
C265        C  0.01926063  0.49844671  0.34755041     0.69400
O266        O  0.03426972  0.52444103  0.35248610    -0.47500
C267        C  0.07369939  0.45157900  0.42061440     0.74100
O268        O  0.12746831  0.49256055  0.38360884    -0.59300
O269        O  0.07469121  0.48083693  0.42846003    -0.49400
O270        O  0.11322327  0.50890815  0.33738426    -0.55700
C271        C  0.06826908  0.55180321  0.41575552     0.84300
O272        O  0.03590733  0.47340670  0.35174632    -0.57600
O273        O  0.07370001  0.44657251  0.39044472    -0.60900
In274      In  0.07151703  0.38342136  0.49414222     1.36900
C275        C  0.13114221  0.35863942  0.49408763     0.76800
O276        O  0.07375194  0.39634213  0.44027242    -0.61700
O277        O  0.07076096  0.43364931  0.47498915    -0.52600
C278        C  0.01498651  0.35386739  0.49110621     0.69400
O279        O  0.03013146  0.35649194  0.51737824    -0.47500
C280        C  0.06588930  0.42116200  0.54575592     0.74100
O281        O  0.10701214  0.34005883  0.49761403    -0.59300
O282        O  0.04863151  0.42377314  0.52088135    -0.49400
O283        O  0.12381313  0.38767770  0.49024903    -0.55700
C284        C  0.07264450  0.42630082  0.44560839     0.84300
O285        O  0.03156824  0.35973469  0.46613214    -0.57600
O286        O  0.08460776  0.39718272  0.54582123    -0.60900
In287      In  0.07103904  0.49856083  0.60757811     1.36900
C288        C  0.13094054  0.49853644  0.63324274     0.76800
O289        O  0.08453274  0.44700837  0.59454945    -0.61700
O290        O  0.04924630  0.47150274  0.56665452    -0.52600
C291        C  0.01279955  0.49886667  0.63463834     0.69400
O292        O  0.02866095  0.47325310  0.63120553    -0.47500
C293        C  0.07108943  0.54784280  0.56521007     0.74100
O294        O  0.10649046  0.49477618  0.65144062    -0.59300
O295        O  0.07296573  0.51863032  0.55747377    -0.49400
O296        O  0.12383943  0.50315057  0.60413947    -0.55700
C297        C  0.06605827  0.44655600  0.57028078     0.84300
O298        O  0.02933599  0.52433784  0.63148138    -0.57600
O299        O  0.06950775  0.55265313  0.59535108    -0.60900
In300      In  0.07019956  0.61582152  0.49067608     1.36900
C301        C  0.12946287  0.64341186  0.49243972     0.76800
O302        O  0.06696540  0.60296512  0.54494105    -0.61700
O303        O  0.07433793  0.56598562  0.51087650    -0.52600
C304        C  0.01215593  0.64246319  0.48616067     0.69400
O305        O  0.03006213  0.63867058  0.46177760    -0.47500
C306        C  0.06672632  0.57709782  0.44017660     0.74100
O307        O  0.10455337  0.66052811  0.49644249    -0.59300
O308        O  0.05067926  0.57277542  0.46581589    -0.49400
O309        O  0.12313600  0.61445657  0.48669170    -0.55700
C310        C  0.07080506  0.57318032  0.54007449     0.84300
O311        O  0.02623989  0.63890999  0.51291602    -0.57600
O312        O  0.08292914  0.60305531  0.43895312    -0.60900
C313        C  0.67427033  0.50288593  0.21004078     0.85700
C314        C  0.65476637  0.47229038  0.21926686    -0.54600
C315        C  0.62471484  0.47081139  0.20657462     0.08600
C316        C  0.61639429  0.49946850  0.18497844     0.19500
C317        C  0.67426847  0.50260947  0.17228325    -0.55300
C318        C  0.64353676  0.50105912  0.15952175     0.08700
C319        C  0.65182045  0.53166026  0.21802621    -0.54800
C320        C  0.62151463  0.52954368  0.20541079     0.09300
H321        H  0.66444673  0.45290137  0.23407435     0.13800
H322        H  0.59165361  0.49776829  0.17474115    -0.00500
H323        H  0.69517241  0.50469479  0.15678596     0.14100
H324        H  0.65961786  0.55229395  0.23216198     0.13900
C325        C  0.50004182  0.68365419  0.21163804     0.85700
C326        C  0.52926310  0.66156582  0.21846358    -0.54600
C327        C  0.52783552  0.63251717  0.20349379     0.08600
C328        C  0.49810799  0.62816766  0.18243775     0.19500
C329        C  0.50026184  0.68661072  0.17363827    -0.55300
C330        C  0.49958045  0.65663186  0.15859781     0.08700
C331        C  0.46947606  0.66339122  0.21851300    -0.54800
C332        C  0.46881631  0.63457733  0.20365314     0.09300
H333        H  0.54920164  0.66830724  0.23413867     0.13800
H334        H  0.49699304  0.60383229  0.17137678    -0.00500
H335        H  0.50133773  0.70920922  0.16037467     0.14100
H336        H  0.44993644  0.67116802  0.23426153     0.13900
C337        C  0.21479030  0.68419689  0.50064115     0.85700
C338        C  0.22804582  0.66064680  0.47492564    -0.54600
C339        C  0.21379967  0.63101862  0.47496682     0.08600
C340        C  0.18872443  0.62661045  0.50191301     0.19500
C341        C  0.17731849  0.68391018  0.49564043    -0.55300
C342        C  0.16392190  0.65338764  0.49630792     0.08700
C343        C  0.21991715  0.66533050  0.53277110    -0.54800
C344        C  0.20580388  0.63554370  0.53343897     0.09300
H345        H  0.24700679  0.66673693  0.45773611     0.13800
H346        H  0.17818817  0.60192883  0.50258247    -0.00500
H347        H  0.16313069  0.70551486  0.49181384     0.14100
H348        H  0.23401193  0.67398055  0.55304715     0.13900
C349        C  0.21712425  0.49682692  0.67269133     0.85700
C350        C  0.22427896  0.52823856  0.65348854    -0.54600
C351        C  0.21114978  0.52956546  0.62356158     0.08600
C352        C  0.19101039  0.49977430  0.61524333     0.19500
C353        C  0.17915823  0.49569488  0.67327118    -0.55300
C354        C  0.16573930  0.49742539  0.64262168     0.08700
C355        C  0.22611162  0.46891996  0.64998741    -0.54800
C356        C  0.21296112  0.47057314  0.62009607     0.09300
H357        H  0.23765743  0.54844748  0.66356194     0.13800
H358        H  0.18069249  0.50094896  0.59050142    -0.00500
H359        H  0.16417980  0.49478886  0.69467791     0.14100
H360        H  0.24165212  0.44912627  0.65726321     0.13900
C361        C  0.67453687  0.22543110  0.49349486     0.85700
C362        C  0.65185048  0.23301291  0.52224694    -0.54600
C363        C  0.62255841  0.21824669  0.52101455     0.08600
C364        C  0.61817710  0.19654580  0.49171068     0.19500
C365        C  0.67659505  0.18765350  0.49463485    -0.55300
C366        C  0.64659181  0.17285182  0.49377412     0.08700
C367        C  0.65444256  0.23218707  0.46270818    -0.54800
C368        C  0.62525080  0.21727597  0.46187135     0.09300
H369        H  0.65884626  0.24822285  0.54241214     0.13800
H370        H  0.59376256  0.18525494  0.49099649    -0.00500
H371        H  0.69831576  0.17356243  0.49629681     0.14100
H372        H  0.66297015  0.24735647  0.44289462     0.13900
C373        C  0.50021542  0.22468925  0.67477661     0.85700
C374        C  0.47050813  0.23329835  0.65360524    -0.54600
C375        C  0.46948384  0.21829079  0.62451555     0.08600
C376        C  0.49752084  0.19552141  0.61882988     0.19500
C377        C  0.49849771  0.18690091  0.67749520    -0.55300
C378        C  0.49683105  0.17205827  0.64760858     0.08700
C379        C  0.53004882  0.23006406  0.65256867    -0.54800
C380        C  0.52817727  0.21527823  0.62346514     0.09300
H381        H  0.45167516  0.24976813  0.66129309     0.13800
H382        H  0.49663075  0.18394905  0.59464432    -0.00500
H383        H  0.49906384  0.17298572  0.69958997     0.14100
H384        H  0.55083980  0.24468447  0.65928370     0.13900
C385        C  0.32930974  0.49968289  0.22430069     0.85700
C386        C  0.35041126  0.52942432  0.23138958    -0.54600
C387        C  0.37903248  0.53005596  0.21551104     0.08600
C388        C  0.38432824  0.50116860  0.19337444     0.19500
C389        C  0.32557348  0.50059621  0.18654490    -0.55300
C390        C  0.35499534  0.50138301  0.17043325     0.08700
C391        C  0.35070942  0.47012164  0.23012356    -0.54800
C392        C  0.37974328  0.47126732  0.21480416     0.09300
H393        H  0.34248110  0.54924168  0.24652690     0.13800
H394        H  0.40817292  0.50181964  0.18093690    -0.00500
H395        H  0.30266527  0.50081118  0.17389632     0.14100
H396        H  0.34355850  0.45001713  0.24557455     0.13900
C397        C  0.50114189  0.31785340  0.21205748     0.85700
C398        C  0.47319745  0.33910333  0.22479376    -0.54600
C399        C  0.47293247  0.36942265  0.21207929     0.08600
C400        C  0.50071843  0.37636729  0.18871891     0.19500
C401        C  0.49803874  0.31952900  0.17452365    -0.55300
C402        C  0.49760477  0.35053588  0.16258353     0.08700
C403        C  0.53149324  0.33827151  0.22032887    -0.54800
C404        C  0.53145181  0.36830334  0.20713658     0.09300
H405        H  0.45533505  0.33126290  0.24248745     0.13800
H406        H  0.50078298  0.40154346  0.17940425    -0.00500
H407        H  0.49622368  0.29842653  0.15921403     0.14100
H408        H  0.55105959  0.33042671  0.23577467     0.13900
C409        C  0.49941199  0.22139703  0.31069761     0.85700
C410        C  0.52946780  0.23126610  0.33092751    -0.54600
C411        C  0.52969595  0.21851728  0.36133229     0.08600
C412        C  0.50032553  0.19762168  0.36924575     0.19500
C413        C  0.49900881  0.18391907  0.31200632    -0.55300
C414        C  0.49976659  0.17173939  0.34295052     0.08700
C415        C  0.47082105  0.23198653  0.33243642    -0.54800
C416        C  0.47107444  0.21866302  0.36253674     0.09300
H417        H  0.54905573  0.24655797  0.32225218     0.13800
H418        H  0.50061537  0.18813528  0.39443494    -0.00500
H419        H  0.49854446  0.16876596  0.29068628     0.14100
H420        H  0.45210310  0.24867932  0.32519313     0.13900
C421        C  0.32439728  0.22551817  0.49213582     0.85700
C422        C  0.34634525  0.23320391  0.46290259    -0.54600
C423        C  0.37572436  0.21904360  0.46390242     0.08600
C424        C  0.38062758  0.19732794  0.49342147     0.19500
C425        C  0.32205260  0.18775859  0.49169953    -0.55300
C426        C  0.35215255  0.17315378  0.49235649     0.08700
C427        C  0.34467883  0.23245582  0.52267458    -0.54800
C428        C  0.37399736  0.21800626  0.52319951     0.09300
H429        H  0.33894636  0.24833058  0.44272476     0.13800
H430        H  0.40507320  0.18637656  0.49387446    -0.00500
H431        H  0.29959480  0.17416402  0.49118007     0.14100
H432        H  0.33617102  0.24724220  0.54255210     0.13900
C433        C  0.22449416  0.50606982  0.32250170     0.85700
C434        C  0.23137526  0.47682285  0.34468567    -0.54600
C435        C  0.21618795  0.47750874  0.37366947     0.08600
C436        C  0.19444864  0.50652162  0.37825546     0.19500
C437        C  0.18672455  0.50576383  0.31968214    -0.55300
C438        C  0.17137186  0.50551415  0.34930862     0.08700
C439        C  0.23152448  0.53608092  0.34365174    -0.54800
C440        C  0.21579754  0.53623384  0.37269676     0.09300
H441        H  0.24648843  0.45667897  0.33757885     0.13800
H442        H  0.18218812  0.50648840  0.40221755    -0.00500
H443        H  0.17288149  0.50469466  0.29773894     0.14100
H444        H  0.24831316  0.55507364  0.33650353     0.13900
C445        C  0.21794107  0.32137622  0.49245508     0.85700
C446        C  0.22606841  0.34156395  0.52282878    -0.54600
C447        C  0.21193613  0.37093922  0.52379697     0.08600
C448        C  0.19029551  0.37783090  0.49494629     0.19500
C449        C  0.17998309  0.31964159  0.49330129    -0.55300
C450        C  0.16588564  0.34984046  0.49452675     0.08700
C451        C  0.22502205  0.34384879  0.46321523    -0.54800
C452        C  0.21090251  0.37313361  0.46493637     0.09300
H453        H  0.24250416  0.33346980  0.54161218     0.13800
H454        H  0.17952190  0.40229042  0.49590494    -0.00500
H455        H  0.16546385  0.29797633  0.49261163     0.14100
H456        H  0.24012590  0.33704188  0.44282558     0.13900
C457        C  0.50348884  0.33238431  0.77015131     0.85700
C458        C  0.53429799  0.35281975  0.76445210    -0.54600
C459        C  0.53376784  0.38220678  0.77859942     0.08600
C460        C  0.50372843  0.38805652  0.79922977     0.19500
C461        C  0.50125398  0.32969466  0.80795965    -0.55300
C462        C  0.50125516  0.35948244  0.82295983     0.08700
C463        C  0.47482525  0.35461925  0.76144465    -0.54800
C464        C  0.47471147  0.38350085  0.77707142     0.09300
H465        H  0.55440763  0.34508162  0.74945869     0.13800
H466        H  0.50448471  0.41199202  0.81106225    -0.00500
H467        H  0.49897067  0.30724203  0.82131534     0.14100
H468        H  0.45624070  0.34780168  0.74426648     0.13900
C469        C  0.31958855  0.50208179  0.77276017     0.85700
C470        C  0.34528549  0.47654579  0.76505670    -0.54600
C471        C  0.37387677  0.48033383  0.78075025     0.08600
C472        C  0.37388710  0.50911588  0.80377174     0.19500
C473        C  0.31575346  0.49942232  0.81042046    -0.55300
C474        C  0.34485544  0.50309681  0.82653338     0.08700
C475        C  0.33619992  0.53503103  0.76760522    -0.54800
C476        C  0.36461935  0.53847837  0.78334455     0.09300
H477        H  0.34094080  0.45682811  0.74837815     0.13800
H478        H  0.39716263  0.51241029  0.81650544    -0.00500
H479        H  0.29309714  0.49480904  0.82290792     0.14100
H480        H  0.32657662  0.55385330  0.75205238     0.13900
C481        C  0.31590927  0.78202934  0.49719853     0.85700
C482        C  0.33831900  0.77208839  0.52560737    -0.54600
C483        C  0.36856460  0.78564292  0.52457975     0.08600
C484        C  0.37402390  0.80711490  0.49477939     0.19500
C485        C  0.31655034  0.81964995  0.49740346    -0.55300
C486        C  0.34728648  0.83257556  0.49597003     0.08700
C487        C  0.33597888  0.77276242  0.46687108    -0.54800
C488        C  0.36596111  0.78624040  0.46551887     0.09300
H489        H  0.33113100  0.75567873  0.54486190     0.13800
H490        H  0.39875399  0.81756796  0.49361201    -0.00500
H491        H  0.29493381  0.83434419  0.49811967     0.14100
H492        H  0.32738739  0.75758471  0.44741781     0.13900
C493        C  0.49186026  0.78512974  0.31263670     0.85700
C494        C  0.45999971  0.77801922  0.33146231    -0.54600
C495        C  0.45818033  0.79201672  0.36108997     0.08600
C496        C  0.48809065  0.81170989  0.36974494     0.19500
C497        C  0.49388409  0.82287335  0.31180888    -0.55300
C498        C  0.49207254  0.83634364  0.34222567     0.08700
C499        C  0.51931169  0.77607904  0.33632975    -0.54800
C500        C  0.51716161  0.78979617  0.36593893     0.09300
H501        H  0.44055809  0.76312669  0.32198439     0.13800
H502        H  0.48648302  0.82206727  0.39442354    -0.00500
H503        H  0.49744973  0.83776818  0.29067050     0.14100
H504        H  0.53923051  0.76035132  0.32987653     0.13900
C505        C  0.77722285  0.50348646  0.30934971     0.85700
C506        C  0.77258461  0.53524061  0.32771717    -0.54600
C507        C  0.78814729  0.53675914  0.35626934     0.08600
C508        C  0.80747768  0.50652888  0.36440504     0.19500
C509        C  0.81490622  0.50083493  0.30574570    -0.55300
C510        C  0.83051045  0.50183303  0.33544032     0.08700
C511        C  0.76909809  0.47590589  0.33319394    -0.54800
C512        C  0.78403782  0.47808040  0.36219343     0.09300
H513        H  0.75792465  0.55503442  0.31876562     0.13800
H514        H  0.81946868  0.50809644  0.38837218    -0.00500
H515        H  0.82751117  0.49709311  0.28304944     0.14100
H516        H  0.75285355  0.45607255  0.32740481     0.13900
C517        C  0.77286929  0.33055041  0.49202030     0.85700
C518        C  0.76632029  0.35180896  0.46204692    -0.54600
C519        C  0.78247640  0.38039111  0.46181467     0.08600
C520        C  0.80436622  0.38519005  0.49103892     0.19500
C521        C  0.81046386  0.32647433  0.49138474    -0.55300
C522        C  0.82669383  0.35568029  0.49039813     0.08700
C523        C  0.76689663  0.35212970  0.52170249    -0.54800
C524        C  0.78313333  0.38061000  0.52103100     0.09300
H525        H  0.75008020  0.34479754  0.44267283     0.13800
H526        H  0.81705122  0.40888668  0.49078812    -0.00500
H527        H  0.82293551  0.30358139  0.49076013     0.14100
H528        H  0.75112231  0.34530125  0.54169405     0.13900
C529        C  0.77536067  0.51245411  0.66674415     0.85700
C530        C  0.76530829  0.48305903  0.64595125    -0.54600
C531        C  0.78145770  0.48072042  0.61734045     0.08600
C532        C  0.80639732  0.50732577  0.61199109     0.19500
C533        C  0.81282798  0.50850984  0.67073042    -0.55300
C534        C  0.82866096  0.50564637  0.64141318     0.08700
C535        C  0.77261435  0.54206553  0.64433153    -0.54800
C536        C  0.78845369  0.53911292  0.61567928     0.09300
H537        H  0.74755305  0.46520534  0.65371689     0.13800
H538        H  0.81926206  0.50526754  0.58842046    -0.00500
H539        H  0.82545547  0.50768175  0.69363664     0.14100
H540        H  0.75852511  0.56325449  0.65031865     0.13900
C541        C  0.67800688  0.51614946  0.77283589     0.85700
C542        C  0.65643985  0.54621112  0.76852821    -0.54600
C543        C  0.62698740  0.54397022  0.78299241     0.08600
C544        C  0.62136517  0.51223319  0.80109414     0.19500
C545        C  0.67983741  0.51238943  0.81053906    -0.55300
C546        C  0.64964946  0.51007759  0.82481479     0.08700
C547        C  0.65677503  0.48706727  0.76253330    -0.54800
C548        C  0.62741595  0.48526486  0.77706778     0.09300
H549        H  0.66362671  0.56720789  0.75434889     0.13800
H550        H  0.59708132  0.51063359  0.81266515    -0.00500
H551        H  0.70151317  0.51123023  0.82487170     0.14100
H552        H  0.66493584  0.46870326  0.74576176     0.13900
C553        C  0.49420554  0.78519469  0.67781770     0.85700
C554        C  0.52342485  0.77434895  0.65709585    -0.54600
C555        C  0.52491341  0.78821780  0.62729665     0.08600
C556        C  0.49603263  0.80977653  0.61963126     0.19500
C557        C  0.49524049  0.82270866  0.67707200    -0.55300
C558        C  0.49587522  0.83534403  0.64627969     0.08700
C559        C  0.46488163  0.77609094  0.65627671    -0.54800
C560        C  0.46558683  0.78947270  0.62606772     0.09300
H561        H  0.54163993  0.75742764  0.66514298     0.13800
H562        H  0.49707396  0.81969053  0.59464494    -0.00500
H563        H  0.49519021  0.83754449  0.69861866     0.14100
H564        H  0.44560909  0.75977941  0.66362449     0.13900
C565        C  0.49247409  0.68629416  0.77440414     0.85700
C566        C  0.46499180  0.66432977  0.76148013    -0.54600
C567        C  0.46441566  0.63425902  0.77460293     0.08600
C568        C  0.49246962  0.62766043  0.79747440     0.19500
C569        C  0.48957163  0.68445331  0.81187425    -0.55300
C570        C  0.48971893  0.65344049  0.82366996     0.08700
C571        C  0.52346661  0.66686348  0.76656932    -0.54800
C572        C  0.52326250  0.63625221  0.77871818     0.09300
H573        H  0.44656156  0.67203690  0.74461140     0.13800
H574        H  0.49252185  0.60251817  0.80688739    -0.00500
H575        H  0.48776961  0.70546358  0.82730238     0.14100
H576        H  0.54374395  0.67596204  0.75246923     0.13900
C577        C  0.77620725  0.68365167  0.48459541     0.85700
C578        C  0.77020493  0.66050599  0.51341623    -0.54600
C579        C  0.78590361  0.63191933  0.51152549     0.08600
C580        C  0.80701608  0.62884391  0.48142490     0.19500
C581        C  0.81401946  0.68737418  0.48433053    -0.55300
C582        C  0.82961957  0.65806090  0.48242878     0.08700
C583        C  0.76932530  0.66360733  0.45393627    -0.54800
C584        C  0.78498274  0.63507910  0.45264466     0.09300
H585        H  0.75493084  0.66654230  0.53393586     0.13800
H586        H  0.81999079  0.60546510  0.48011902    -0.00500
H587        H  0.82751707  0.70964764  0.48510303     0.14100
H588        H  0.75366233  0.67175551  0.43451392     0.13900
C589        C  0.66677605  0.77578790  0.49111958     0.85700
C590        C  0.64318606  0.76978883  0.46293300    -0.54600
C591        C  0.61399786  0.78441229  0.46620468     0.08600
C592        C  0.61136648  0.80494789  0.49664033     0.19500
C593        C  0.66974752  0.81344753  0.49178787    -0.55300
C594        C  0.64018498  0.82856182  0.49436178     0.08700
C595        C  0.64788767  0.76745920  0.52232928    -0.54800
C596        C  0.61897131  0.78247911  0.52504337     0.09300
H597        H  0.64931079  0.75545077  0.44188132     0.13800
H598        H  0.58748924  0.81681845  0.49908761    -0.00500
H599        H  0.69219965  0.82684726  0.48939712     0.14100
H600        H  0.65718660  0.75170397  0.54116166     0.13900
C601        C  0.71877522  0.69992237  0.48620863    -0.10000
C602        C  0.75102573  0.71111518  0.48608614     0.06200
C603        C  0.75581860  0.74508874  0.48672557    -0.03700
C604        C  0.72881085  0.76601877  0.48797318    -0.08200
C605        C  0.69672131  0.75410358  0.48831756     0.05300
C606        C  0.69238076  0.72022213  0.48706217    -0.03200
Br607      Br  0.65110739  0.69834164  0.48634111    -0.02900
H608        H  0.71379911  0.67423532  0.48544687     0.09200
H609        H  0.73325636  0.79167551  0.48885191     0.07300
Br610      Br  0.79732262  0.76559885  0.48569904    -0.03300
C611        C  0.55888837  0.75540823  0.58983294    -0.10000
C612        C  0.55277793  0.78496361  0.60494304     0.06200
C613        C  0.57218396  0.81187875  0.59685629    -0.03700
C614        C  0.59391432  0.81020590  0.57110613    -0.08200
C615        C  0.59854754  0.78134663  0.55447582     0.05300
C616        C  0.58226384  0.75323930  0.56523377    -0.03200
Br617      Br  0.58977650  0.71186555  0.54644546    -0.02900
H618        H  0.54491429  0.73423719  0.59659227     0.09200
H619        H  0.60752612  0.83157147  0.56414832     0.07300
Br620      Br  0.57251633  0.85058416  0.62176632    -0.03300
C621        C  0.52110273  0.73662941  0.75199128    -0.10000
C622        C  0.49195908  0.72062462  0.75989387     0.06200
C623        C  0.46296586  0.73592139  0.75018963    -0.03700
C624        C  0.46387142  0.75942457  0.72567518    -0.08200
C625        C  0.49341729  0.76968803  0.71184609     0.05300
C626        C  0.52189989  0.76161317  0.72897909    -0.03200
Br627      Br  0.56225791  0.78410962  0.72296011    -0.02900
H628        H  0.54358910  0.72918383  0.76296463     0.09200
H629        H  0.44123194  0.76903082  0.71694412     0.07300
Br630      Br  0.42168038  0.72696276  0.76999026    -0.03300
C631        C  0.57216610  0.56025886  0.76680850    -0.10000
C632        C  0.60186427  0.56902343  0.78029657     0.06200
C633        C  0.60639617  0.60075810  0.79160290    -0.03700
C634        C  0.58100541  0.62296177  0.78948661    -0.08200
C635        C  0.55096472  0.61385172  0.77650862     0.05300
C636        C  0.54693538  0.58230065  0.76468226    -0.03200
Br637      Br  0.50806354  0.56800547  0.74424383    -0.02900
H638        H  0.56857198  0.53603353  0.75780718     0.09200
H639        H  0.58425424  0.64695111  0.79925484     0.07300
Br640      Br  0.64550481  0.61399892  0.81270643    -0.03300
C641        C  0.77927440  0.55340132  0.55849109    -0.10000
C642        C  0.78752021  0.56351124  0.58966865     0.06200
C643        C  0.79552115  0.59611016  0.59499127    -0.03700
C644        C  0.79414057  0.61811766  0.56933666    -0.08200
C645        C  0.78570122  0.60800244  0.53812163     0.05300
C646        C  0.77851553  0.57525044  0.53277446    -0.03200
Br647      Br  0.76630627  0.55896126  0.49141485    -0.02900
H648        H  0.77322615  0.52833974  0.55413469     0.09200
H649        H  0.80068003  0.64308012  0.57354376     0.07300
Br650      Br  0.81138212  0.61128471  0.63577957    -0.03300
C651        C  0.69764468  0.52205611  0.71650323    -0.10000
C652        C  0.70704294  0.51817009  0.74900588     0.06200
C653        C  0.74071881  0.51435695  0.75494200    -0.03700
C654        C  0.76293054  0.51340052  0.72864293    -0.08200
C655        C  0.75256592  0.51573977  0.69615426     0.05300
C656        C  0.71908582  0.52049350  0.69079070    -0.03200
Br657      Br  0.69906315  0.52384594  0.64883628    -0.02900
H658        H  0.67229039  0.52501108  0.71063543     0.09200
H659        H  0.78825818  0.50999146  0.73388365     0.07300
Br660      Br  0.75904378  0.50937560  0.79707692    -0.03300
C661        C  0.75434312  0.42457542  0.55004407    -0.10000
C662        C  0.78140037  0.40446563  0.54747465     0.06200
C663        C  0.80690014  0.40796756  0.56967090    -0.09700
C664        C  0.80576337  0.43222043  0.59298145    -0.08200
C665        C  0.77920275  0.45295478  0.59507121     0.05300
C666        C  0.75306558  0.44871367  0.57369482    -0.03200
Br667      Br  0.71608817  0.47625180  0.57474419    -0.02900
H668        H  0.73452279  0.42195376  0.53314831     0.09200
H669        H  0.82584977  0.43502107  0.60951185     0.07300
Br670      Br  0.84329209  0.37962959  0.56992807    -0.03300
C671        C  0.79002179  0.42104647  0.37963992    -0.10000
C672        C  0.78128584  0.45272670  0.38731406     0.06200
C673        C  0.77076037  0.45973538  0.41885448    -0.03700
C674        C  0.77115895  0.43578082  0.44273538    -0.08200
C675        C  0.78054966  0.40427840  0.43528677     0.05300
C676        C  0.78935397  0.39673725  0.40321278    -0.03200
Br677      Br  0.80217330  0.35424536  0.39049115    -0.02900
H678        H  0.79788984  0.41532248  0.35531842     0.09200
H679        H  0.76359433  0.44161237  0.46713847     0.07300
Br680      Br  0.75287055  0.50063237  0.42970302    -0.03300
C681        C  0.75662475  0.57414600  0.39085720    -0.10000
C682        C  0.78645668  0.56513337  0.37745008     0.06200
C683        C  0.81450232  0.58248965  0.38554660    -0.03700
C684        C  0.81307511  0.60611980  0.40922131    -0.08200
C685        C  0.78388195  0.61334500  0.42465137     0.05300
C686        C  0.75513431  0.59815858  0.41447603    -0.03200
Br687      Br  0.71399015  0.60727523  0.43390195    -0.02900
H688        H  0.73473644  0.56141561  0.38409000     0.09200
H689        H  0.83493551  0.61890885  0.41561808     0.07300
Br690      Br  0.85485364  0.57649703  0.36371575    -0.03300
C691        C  0.53350044  0.77773673  0.42235757    -0.10000
C692        C  0.54246090  0.78707693  0.39096344     0.06200
C693        C  0.57489751  0.79570030  0.38454520    -0.03700
C694        C  0.59790407  0.79367749  0.40915465    -0.08200
C695        C  0.58903356  0.78411852  0.44057621     0.05300
C696        C  0.55639998  0.77631347  0.44714369    -0.03200
Br697      Br  0.54162466  0.76264053  0.48900785    -0.02900
H698        H  0.50851498  0.77156413  0.42761439     0.09200
H699        H  0.62265801  0.80080583  0.40403671     0.07300
Br700      Br  0.58849492  0.81359017  0.34373669    -0.03300
C701        C  0.39361761  0.81542932  0.42121929    -0.10000
C702        C  0.38663946  0.78586708  0.43618966     0.06200
C703        C  0.39958614  0.75738685  0.42301130    -0.03700
C704        C  0.42187502  0.75936810  0.39731016    -0.08200
C705        C  0.43017433  0.78933008  0.38354251     0.05300
C706        C  0.41422308  0.81716518  0.39450501    -0.03200
Br707      Br  0.41706486  0.85756794  0.37216742    -0.02900
H708        H  0.38241948  0.83728813  0.42996916     0.09200
H709        H  0.43346959  0.73765163  0.38874841     0.07300
Br710      Br  0.38876403  0.71564281  0.44009772    -0.03300
C711        C  0.38361440  0.78913278  0.58318514    -0.10000
C712        C  0.39295601  0.78278446  0.55108732     0.06200
C713        C  0.42597297  0.77688915  0.54460948    -0.03700
C714        C  0.44875518  0.77836003  0.56953885    -0.08200
C715        C  0.43963167  0.78547428  0.60138860     0.05300
C716        C  0.40653095  0.79072788  0.60819480    -0.03200
Br717      Br  0.39145534  0.80336215  0.65024821    -0.02900
H718        H  0.35853695  0.79436063  0.58860139     0.09200
H719        H  0.47395772  0.77393025  0.56392032     0.07300
Br720      Br  0.44175624  0.76533383  0.50259402    -0.03300
C721        C  0.39919141  0.57472537  0.74937153    -0.10000
C722        C  0.38573067  0.56708478  0.77974642     0.06200
C723        C  0.39500414  0.58500945  0.80690172    -0.03700
C724        C  0.42011095  0.60736704  0.80430806    -0.08200
C725        C  0.43543999  0.61328586  0.77455746     0.05300
C726        C  0.42366173  0.59814535  0.74653687    -0.03200
Br727      Br  0.44113970  0.60748287  0.70449141    -0.02900
H728        H  0.39162091  0.56155112  0.72811817     0.09200
H729        H  0.42769453  0.62023551  0.82572472     0.07300
Br730      Br  0.37288766  0.58132332  0.84749366    -0.03300
C731        C  0.39178896  0.42325018  0.77855667    -0.10000
C732        C  0.40024580  0.45614320  0.77848065     0.06200
C733        C  0.43330267  0.46467701  0.77711242    -0.03700
C734        C  0.45671194  0.44059968  0.77594086    -0.08200
C735        C  0.44831493  0.40772906  0.77558873     0.05300
C736        C  0.41525579  0.39916345  0.77737104    -0.03200
Br737      Br  0.40014679  0.35554205  0.78234462    -0.02900
H738        H  0.36664617  0.41607943  0.78078650     0.09200
H739        H  0.48182031  0.44790748  0.77563845     0.07300
Br740      Br  0.44887896  0.50828737  0.77538445    -0.03300
C741        C  0.58761981  0.40432570  0.79325653    -0.10000
C742        C  0.55961838  0.40668944  0.77447428     0.06200
C743        C  0.55583696  0.43343266  0.75363467    -0.03700
C744        C  0.57832897  0.45881706  0.75433819    -0.08200
C745        C  0.60560069  0.45706686  0.77426573     0.05300
C746        C  0.61089429  0.42895697  0.79273239    -0.03200
Br747      Br  0.64942144  0.42321478  0.81773222    -0.02900
H748        H  0.59115144  0.38347663  0.80871541     0.09200
H749        H  0.57468798  0.47979818  0.73911189     0.07300
Br750      Br  0.52181522  0.43541582  0.72230569    -0.03300
C751        C  0.18944638  0.42944804  0.39659352    -0.10000
C752        C  0.21630562  0.45009208  0.39621445     0.06200
C753        C  0.24252199  0.44412535  0.41691998    -0.03700
C754        C  0.24085436  0.41834851  0.43886465    -0.08200
C755        C  0.21367198  0.39797041  0.43956363     0.05300
C756        C  0.18825484  0.40310662  0.41762558    -0.03200
Br757      Br  0.15229053  0.37400282  0.41415750    -0.02900
H758        H  0.16956920  0.43356867  0.38008012     0.09200
H759        H  0.26053666  0.41441850  0.45564184     0.07300
Br760      Br  0.28049759  0.47088371  0.41626067    -0.03300
C761        C  0.27446499  0.30272186  0.49115333    -0.10000
C762        C  0.24187599  0.29272621  0.49103475     0.06200
C763        C  0.23588657  0.25889677  0.48998040    -0.03700
C764        C  0.26224310  0.23689975  0.49021032    -0.08200
C765        C  0.29470811  0.24779130  0.49138521     0.05300
C766        C  0.30009100  0.28158611  0.49163505    -0.03200
Br767      Br  0.34198649  0.30243162  0.49311311    -0.02900
H768        H  0.28039670  0.32822442  0.49145035     0.09200
H769        H  0.25715795  0.21131796  0.48949210     0.07300
Br770      Br  0.19351086  0.24039005  0.48746144    -0.03300
C771        C  0.44676027  0.24401800  0.41103141    -0.10000
C772        C  0.44441719  0.22145587  0.38605253     0.06200
C773        C  0.41864112  0.19911636  0.38602256    -0.03700
C774        C  0.39615450  0.19902508  0.41136393    -0.08200
C775        C  0.39892417  0.22109932  0.43676963     0.05300
C776        C  0.42400155  0.24416811  0.43617695    -0.03200
Br777      Br  0.42832152  0.27593153  0.46932356    -0.02900
H778        H  0.46668154  0.26108622  0.41130710     0.09200
H779        H  0.37676865  0.18132772  0.41156752     0.07300
Br780      Br  0.41390371  0.16757269  0.35253960    -0.03300
C781        C  0.52841946  0.24431790  0.26087544    -0.10000
C782        C  0.49906488  0.23616893  0.27639060     0.06200
C783        C  0.47025211  0.24531367  0.26035735    -0.03700
C784        C  0.47137180  0.26941258  0.23644327    -0.08200
C785        C  0.50092949  0.28368579  0.22690382     0.05300
C786        C  0.52946999  0.26717791  0.23577669    -0.03200
Br787      Br  0.56982781  0.27247773  0.21306427    -0.02900
H788        H  0.55085821  0.23362864  0.26883980     0.09200
H789        H  0.44885208  0.27804601  0.22640358     0.07300
Br790      Br  0.42905367  0.22501329  0.26835849    -0.03300
C791        C  0.28110158  0.50378708  0.30314820    -0.10000
C792        C  0.24845189  0.50471343  0.29362923     0.06200
C793        C  0.24210154  0.50236119  0.25981955    -0.03700
C794        C  0.26803572  0.50051744  0.23742472    -0.08200
C795        C  0.30043196  0.49950223  0.24768932     0.05300
C796        C  0.30631642  0.49986904  0.28148665    -0.03200
Br797      Br  0.34815584  0.49464803  0.30138057    -0.02900
H798        H  0.28724661  0.50493865  0.32860188     0.09200
H799        H  0.26257873  0.49960594  0.21190533     0.07300
Br800      Br  0.19999349  0.50064568  0.24099487    -0.03300
C801        C  0.39314525  0.41324988  0.21083839    -0.10000
C802        C  0.40343909  0.44485142  0.21739589     0.06200
C803        C  0.43592672  0.45047189  0.22600612    -0.03700
C804        C  0.45772355  0.42492858  0.22632047    -0.08200
C805        C  0.44777237  0.39366169  0.21820447     0.05300
C806        C  0.41498684  0.38768589  0.21109195    -0.03200
Br807      Br  0.39918461  0.34600139  0.19847382    -0.02900
H808        H  0.36820468  0.40862980  0.20425822     0.09200
H809        H  0.48288110  0.42965814  0.23200971     0.07300
Br810      Br  0.45208106  0.49202831  0.23821053    -0.03300
C811        C  0.50533922  0.28128332  0.69303993    -0.10000
C812        C  0.50182218  0.24903050  0.70331030     0.06200
C813        C  0.49881490  0.24373068  0.73730509    -0.03700
C814        C  0.49987908  0.27028985  0.75906792    -0.08200
C815        C  0.50344348  0.30246102  0.74792475     0.05300
C816        C  0.50616199  0.30717576  0.71402531    -0.03200
Br817      Br  0.51032175  0.34855778  0.69281897    -0.02900
H818        H  0.50698764  0.28679216  0.66741962     0.09200
H819        H  0.49723816  0.26558355  0.78467631     0.07300
Br820      Br  0.49131116  0.20222488  0.75639836    -0.03300
C821        C  0.41551969  0.24706630  0.55610196    -0.10000
C822        C  0.39611933  0.21959739  0.55132766     0.06200
C823        C  0.39871711  0.19347962  0.57307157    -0.03700
C824        C  0.42220143  0.19398116  0.59729968    -0.08200
C825        C  0.44248502  0.22080578  0.60126839     0.05300
C826        C  0.43849748  0.24790068  0.58104403    -0.03200
Br827      Br  0.46471283  0.28582782  0.58589626    -0.02900
H828        H  0.41313008  0.26767559  0.54014894     0.09200
H829        H  0.42472948  0.17324398  0.61312837     0.07300
Br830      Br  0.36977595  0.15728421  0.57204712    -0.03300
C831        C  0.69401279  0.28194140  0.49336569    -0.10000
C832        C  0.70347347  0.24935230  0.49391488     0.06200
C833        C  0.73731344  0.24312367  0.49386729    -0.03700
C834        C  0.75978166  0.26913138  0.49336379    -0.08200
C835        C  0.74955658  0.30155323  0.49265812     0.05300
C836        C  0.71581247  0.30735405  0.49264564    -0.03200
Br837      Br  0.69624572  0.34955518  0.49128459    -0.02900
H838        H  0.66853422  0.28799417  0.49312482     0.09200
H839        H  0.78529817  0.26369675  0.49338371     0.07300
Br840      Br  0.75575472  0.20094956  0.49374872    -0.03300
C841        C  0.57545582  0.19305721  0.38918825    -0.10000
C842        C  0.55712471  0.22079813  0.38386645     0.06200
C843        C  0.56302662  0.24847362  0.40249784    -0.03700
C844        C  0.58602875  0.24741583  0.42738013    -0.08200
C845        C  0.60336675  0.21902923  0.43365345     0.05300
C846        C  0.59886338  0.19220085  0.41337116    -0.03200
Br847      Br  0.62509855  0.15443741  0.41610087    -0.02900
H848        H  0.57132687  0.17181901  0.37455795     0.09200
H849        H  0.58984124  0.26847090  0.44230005     0.07300
Br850      Br  0.53908765  0.28735240  0.39569272    -0.03300
C851        C  0.60245329  0.19672911  0.57343931    -0.10000
C852        C  0.59920114  0.21898180  0.54800165     0.06200
C853        C  0.57317005  0.24060410  0.54807709    -0.03700
C854        C  0.55053226  0.23952238  0.57327022    -0.08200
C855        C  0.55369673  0.21723861  0.59861958     0.05300
C856        C  0.57989492  0.19575301  0.59873477    -0.03200
Br857      Br  0.58520486  0.16426287  0.63243204    -0.02900
H858        H  0.62234510  0.17983033  0.57335917     0.09200
H859        H  0.53025902  0.25590258  0.57293438     0.07300
Br860      Br  0.56759268  0.27173453  0.51420222    -0.03300
C861        C  0.27304980  0.49932093  0.69323951    -0.10000
C862        C  0.24029597  0.49569422  0.70205143     0.06200
C863        C  0.23341151  0.49134761  0.73553274    -0.03700
C864        C  0.25882150  0.49298863  0.75859359    -0.08200
C865        C  0.29122566  0.49865251  0.74906957     0.05300
C866        C  0.29778467  0.50130722  0.71544910    -0.03200
Br867      Br  0.34001978  0.50866425  0.69639136    -0.02900
H868        H  0.27972768  0.50150505  0.66792805     0.09200
H869        H  0.25302901  0.48984363  0.78393032     0.07300
Br870      Br  0.19127322  0.48129160  0.75198984    -0.03300
C871        C  0.20889608  0.41258032  0.60522269    -0.10000
C872        C  0.21655600  0.44440753  0.59610817     0.06200
C873        C  0.22638344  0.45076353  0.56410927    -0.03700
C874        C  0.22585048  0.42613578  0.54122450    -0.08200
C875        C  0.21659622  0.39470008  0.54990148     0.05300
C876        C  0.20912556  0.38767650  0.58249720    -0.03200
Br877      Br  0.19683903  0.34528341  0.59696972    -0.02900
H878        H  0.20167590  0.40725876  0.62990398     0.09200
H879        H  0.23249740  0.43159635  0.51640330     0.07300
Br880      Br  0.24257653  0.49200926  0.55084234    -0.03300
C881        C  0.26702637  0.75520855  0.46916079    -0.10000
C882        C  0.28180348  0.76591756  0.49798424     0.06200
C883        C  0.26523296  0.75827484  0.52707667    -0.03700
C884        C  0.24139138  0.73382696  0.52754863    -0.08200
C885        C  0.23189344  0.71768544  0.49904910     0.05300
C886        C  0.24208192  0.73200272  0.46942303    -0.03200
Br887      Br  0.22317830  0.72144022  0.42830408    -0.02900
H888        H  0.27510821  0.76443210  0.44599078     0.09200
H889        H  0.23055733  0.72737197  0.55053187     0.07300
Br890      Br  0.27235114  0.78173569  0.56635342    -0.03300
C891        C  0.21317794  0.61705938  0.41628527    -0.10000
C892        C  0.21830179  0.60728604  0.44847544     0.06200
C893        C  0.22496354  0.57464939  0.45485619    -0.03700
C894        C  0.22523006  0.55230292  0.42963874    -0.08200
C895        C  0.21909769  0.56177819  0.39761645     0.05300
C896        C  0.21343921  0.59467570  0.39093802    -0.03200
Br897      Br  0.20279299  0.60997849  0.34842645    -0.02900
H898        H  0.20754212  0.64201130  0.41099587     0.09200
H899        H  0.22990847  0.52719834  0.43516361     0.07300
Br900      Br  0.23498274  0.55939383  0.49731327    -0.03300
C901        C  0.23788297  0.60026975  0.57040341    -0.10000
C902        C  0.20776687  0.61262933  0.56105740     0.06200
C903        C  0.17952693  0.59993232  0.57549424    -0.03700
C904        C  0.18130088  0.57305137  0.59582755    -0.08200
C905        C  0.21114431  0.55925251  0.60347848     0.05300
C906        C  0.23978115  0.57397894  0.59184033    -0.03200
Br907      Br  0.28178418  0.55794323  0.60275637    -0.02900
H908        H  0.25986105  0.61009111  0.55984807     0.09200
H909        H  0.15922292  0.56307514  0.60602965     0.07300
Br910      Br  0.13828677  0.61985171  0.57042630    -0.03300
C911        C  0.49959061  0.74499098  0.22592708    -0.10000
C912        C  0.49995649  0.71223529  0.23534941     0.06200
C913        C  0.49802324  0.70532540  0.26901160    -0.03700
C914        C  0.49403141  0.72974189  0.29122482    -0.08200
C915        C  0.49420275  0.76261139  0.28278194     0.05300
C916        C  0.49722931  0.77016520  0.24914830    -0.03200
Br917      Br  0.49758501  0.81309127  0.23203407    -0.02900
H918        H  0.50099823  0.75116031  0.20050743     0.09200
H919        H  0.49148807  0.72262327  0.31638670     0.07300
Br920      Br  0.49973304  0.66271597  0.28817045    -0.03300
C921        C  0.40411455  0.57392759  0.18421959    -0.10000
C922        C  0.39978207  0.55889049  0.21428279     0.06200
C923        C  0.41489784  0.57185127  0.24188344    -0.03700
C924        C  0.43674327  0.59743834  0.23828303    -0.08200
C925        C  0.44242022  0.61113506  0.20775124     0.05300
C926        C  0.42446633  0.60053136  0.18104429    -0.03200
Br927      Br  0.42434402  0.62330863  0.14075380    -0.02900
H928        H  0.39107710  0.56533929  0.16323128     0.09200
H929        H  0.44990757  0.60612757  0.25914626     0.07300
Br930      Br  0.40784092  0.55506917  0.28456787    -0.03300
C931        C  0.69674500  0.50504338  0.26488327    -0.10000
C932        C  0.70459377  0.50411450  0.23182291     0.06200
C933        C  0.73810573  0.50278907  0.22356594    -0.03700
C934        C  0.76184848  0.50209643  0.24836779    -0.08200
C935        C  0.75304892  0.50285574  0.28133467     0.05300
C936        C  0.71959394  0.50454544  0.28899920    -0.03200
Br937      Br  0.70144578  0.50660999  0.33217742    -0.02900
H938        H  0.67162076  0.50578945  0.27245302     0.09200
H939        H  0.78715585  0.50122224  0.24174854     0.07300
Br940      Br  0.75432189  0.50166901  0.18020863    -0.03300
C941        C  0.59869082  0.42416922  0.18093912    -0.10000
C942        C  0.60381734  0.44203994  0.20903832     0.06200
C943        C  0.58811295  0.43282941  0.23799238    -0.03700
C944        C  0.56496825  0.40798828  0.23748135    -0.08200
C945        C  0.55883655  0.39110569  0.20882064     0.05300
C946        C  0.57712877  0.39827367  0.18090903    -0.03200
Br947      Br  0.57504624  0.37250264  0.14266692    -0.02900
H948        H  0.61170583  0.43031198  0.15893009     0.09200
H949        H  0.55138605  0.40222260  0.25922556     0.07300
Br950      Br  0.59685459  0.45383536  0.27829244    -0.03300
C951        C  0.60711616  0.58712396  0.19669736    -0.10000
C952        C  0.59764594  0.55612983  0.20701484     0.06200
C953        C  0.56522028  0.55085632  0.21653410    -0.03700
C954        C  0.54327658  0.57636248  0.21613041    -0.08200
C955        C  0.55280787  0.60726237  0.20600885     0.05300
C956        C  0.58491790  0.61249038  0.19568870    -0.03200
Br957      Br  0.59876244  0.65269334  0.17694791    -0.02900
H958        H  0.63159688  0.59130758  0.18816971     0.09200
H959        H  0.51843820  0.57198467  0.22348586     0.07300
Br960      Br  0.54921182  0.50980270  0.23089948    -0.03300
loop_ 
_geom_bond_atom_site_label_1 
_geom_bond_atom_site_label_2 
_geom_bond_distance 
_geom_bond_site_symmetry_2 
_ccdc_geom_bond_type 
In1           O3   2.288       .  S
In1           O4   2.221       .  S
In1          O12   2.242       .  S
In1           O6   2.267       .  S
In1           O8   2.188       .  S
In1           O9   2.232       .  S
In1          O10   2.340       .  S
In1          O13   2.274       .  S
C2            O8   1.253       .  A
C2           O10   1.266       .  A
C2          C462   1.492       .  S
O3           C11   1.265       .  A
O4           C11   1.259       .  A
C5           O12   1.258       .  A
C5            O6   1.262       .  A
C5          C161   1.470   1_556  S
C7            O9   1.258       .  A
C7           O13   1.262       .  A
C7           C50   1.465       .  S
C11          C20   1.469       .  S
In14         O16   2.292       .  S
In14         O17   2.221       .  S
In14         O25   2.258       .  S
In14         O19   2.267       .  S
In14         O21   2.351       .  S
In14         O22   2.218       .  S
In14         O23   2.182       .  S
In14         O26   2.287       .  S
C15          O21   1.268       .  A
C15          O23   1.252       .  A
C15         C474   1.494       .  S
O16          C24   1.265       .  A
O17          C24   1.255       .  A
C18          O25   1.260       .  A
C18          O19   1.262       .  A
C18         C174   1.478   1_556  S
C20          O22   1.258       .  A
C20          O26   1.265       .  A
C24          C33   1.468       .  S
In27         O29   2.277       .  S
In27         O30   2.237       .  S
In27         O38   2.239       .  S
In27         O32   2.252       .  S
In27         O34   2.189       .  S
In27         O35   2.225       .  S
In27         O36   2.307       .  S
In27         O39   2.290       .  S
C28          O34   1.255       .  A
C28          O36   1.264       .  A
C28         C570   1.478       .  S
O29          C37   1.262       .  A
O30          C37   1.259       .  A
C31          O38   1.260       .  A
C31          O32   1.260       .  A
C31         C187   1.463   1_556  S
C33          O35   1.257       .  A
C33          O39   1.263       .  A
C37          C46   1.467       .  S
In40         O42   2.276       .  S
In40         O43   2.233       .  S
In40         O51   2.249       .  S
In40         O45   2.251       .  S
In40         O47   2.309       .  S
In40         O48   2.238       .  S
In40         O49   2.203       .  S
In40         O52   2.279       .  S
C41          O47   1.263       .  A
C41          O49   1.254       .  A
C41         C546   1.475       .  S
O42          C50   1.264       .  A
O43          C50   1.257       .  A
C44          O51   1.259       .  A
C44          O45   1.260       .  A
C44         C200   1.465   1_556  S
C46          O48   1.258       .  A
C46          O52   1.262       .  A
In53         O55   2.281       .  S
In53         O56   2.212       .  S
In53         O64   2.239       .  S
In53         O58   2.246       .  S
In53         O60   2.161       .  S
In53         O61   2.217       .  S
In53         O62   2.326       .  S
In53         O65   2.291       .  S
C54          O60   1.251       .  A
C54          O62   1.264       .  A
C54         C498   1.478       .  S
O55          C63   1.265       .  A
O56          C63   1.258       .  A
C57          O64   1.260       .  A
C57          O58   1.260       .  A
C57         C252   1.463   1_565  S
C59          O61   1.256       .  A
C59          O65   1.265       .  A
C59          C76   1.467       .  S
C63          C98   1.464       .  S
In66         O68   2.291       .  S
In66         O69   2.216       .  S
In66         O77   2.258       .  S
In66         O71   2.259       .  S
In66         O73   2.335       .  S
In66         O74   2.226       .  S
In66         O75   2.198       .  S
In66         O78   2.285       .  S
C67          O73   1.266       .  A
C67          O75   1.254       .  A
C67         C486   1.491       .  S
O68          C76   1.265       .  A
O69          C76   1.257       .  A
C70          O77   1.260       .  A
C70          O71   1.260       .  A
C70         C239   1.473   1_565  S
C72          O74   1.258       .  A
C72          O78   1.264       .  A
C72          C89   1.467       .  S
In79         O81   2.281       .  S
In79         O82   2.223       .  S
In79         O90   2.255       .  S
In79         O84   2.251       .  S
In79         O86   2.181       .  S
In79         O87   2.213       .  S
In79         O88   2.325       .  S
In79         O91   2.296       .  S
C80          O86   1.253       .  A
C80          O88   1.265       .  A
C80         C558   1.483       .  S
O81          C89   1.264       .  A
O82          C89   1.258       .  A
C83          O90   1.260       .  A
C83          O84   1.260       .  A
C83         C213   1.468   1_565  S
C85          O87   1.254       .  A
C85          O91   1.264       .  A
C85         C102   1.466       .  S
In92         O94   2.292       .  S
In92         O95   2.213       .  S
In92        O103   2.271       .  S
In92         O97   2.261       .  S
In92         O99   2.197       .  S
In92        O100   2.210       .  S
In92        O101   2.339       .  S
In92        O104   2.284       .  S
C93          O99   1.253       .  A
C93         O101   1.268       .  A
C93         C594   1.492       .  S
O94         C102   1.264       .  A
O95         C102   1.256       .  A
C96         O103   1.261       .  A
C96          O97   1.260       .  A
C96         C226   1.479   1_565  S
C98         O100   1.258       .  A
C98         O104   1.266       .  A
In105       O107   2.288       .  S
In105       O108   2.259       .  S
In105       O116   2.270       .  S
In105       O110   2.258       .  S
In105       O112   2.317       .  S
In105       O113   2.228       .  S
In105       O114   2.208       .  S
In105       O117   2.289       .  S
C106        O112   1.264       .  A
C106        O114   1.255       .  A
C106        C534   1.479       .  S
O107        C115   1.261       .  A
O108        C115   1.259       .  A
C109        O116   1.260       .  A
C109        O110   1.258       .  A
C109        C291   1.474   1_655  S
C111        O113   1.257       .  A
C111        O117   1.262       .  A
C111        C141   1.468       .  S
C115        C124   1.475       .  S
In118       O120   2.280       .  S
In118       O121   2.243       .  S
In118       O129   2.259       .  S
In118       O123   2.254       .  S
In118       O125   2.224       .  S
In118       O126   2.254       .  S
In118       O127   2.309       .  S
In118       O130   2.283       .  S
C119        O125   1.253       .  A
C119        O127   1.260       .  A
C119        C582   1.476       .  S
O120        C128   1.261       .  A
O121        C128   1.258       .  A
C122        O129   1.260       .  A
C122        O123   1.258       .  A
C122        C304   1.469   1_655  S
C124        O126   1.259       .  A
C124        O130   1.263       .  A
C128        C150   1.468       .  S
In131       O133   2.297       .  S
In131       O134   2.223       .  S
In131       O142   2.255       .  S
In131       O136   2.250       .  S
In131       O138   2.187       .  S
In131       O139   2.207       .  S
In131       O140   2.328       .  S
In131       O143   2.286       .  S
C132        O138   1.252       .  A
C132        O140   1.264       .  A
C132        C522   1.481       .  S
O133        C141   1.263       .  A
O134        C141   1.254       .  A
C135        O142   1.258       .  A
C135        O136   1.258       .  A
C135        C278   1.465   1_655  S
C137        O139   1.259       .  A
C137        O143   1.268       .  A
C137        C154   1.467       .  S
In144       O146   2.283       .  S
In144       O147   2.210       .  S
In144       O155   2.271       .  S
In144       O149   2.246       .  S
In144       O151   2.350       .  S
In144       O152   2.236       .  S
In144       O153   2.187       .  S
In144       O156   2.286       .  S
C145        O151   1.264       .  A
C145        O153   1.250       .  A
C145        C510   1.488       .  S
O146        C154   1.267       .  A
O147        C154   1.260       .  A
C148        O155   1.262       .  A
C148        O149   1.259       .  A
C148        C265   1.471   1_655  S
C150        O152   1.255       .  A
C150        O156   1.262       .  A
In157       O159   2.285       .  S
In157       O160   2.221       .  S
In157       O168   2.241       .  S
In157       O162   2.263       .  S
In157       O164   2.325       .  S
In157       O165   2.219       .  S
In157       O166   2.188       .  S
In157       O169   2.281       .  S
C158        O164   1.266       .  A
C158        O166   1.254       .  A
C158        C402   1.485       .  S
O159        C167   1.263       .  A
O160        C167   1.256       .  A
C161        O168   1.259       .  A
C161        O162   1.262       .  A
C163        O165   1.257       .  A
C163        O169   1.264       .  A
C163        C180   1.464       .  S
C167        C202   1.465       .  S
In170       O172   2.277       .  S
In170       O173   2.222       .  S
In170       O181   2.265       .  S
In170       O175   2.271       .  S
In170       O177   2.341       .  S
In170       O178   2.240       .  S
In170       O179   2.207       .  S
In170       O182   2.299       .  S
C171        O177   1.267       .  A
C171        O179   1.254       .  A
C171        C390   1.496       .  S
O172        C180   1.263       .  A
O173        C180   1.259       .  A
C174        O181   1.261       .  A
C174        O175   1.260       .  A
C176        O178   1.257       .  A
C176        O182   1.265       .  A
C176        C193   1.478       .  S
In183       O185   2.304       .  S
In183       O186   2.248       .  S
In183       O194   2.237       .  S
In183       O188   2.255       .  S
In183       O190   2.354       .  S
In183       O191   2.222       .  S
In183       O192   2.175       .  S
In183       O195   2.283       .  S
C184        O190   1.264       .  A
C184        O192   1.253       .  A
C184        C330   1.492       .  S
O185        C193   1.262       .  A
O186        C193   1.254       .  A
C187        O194   1.258       .  A
C187        O188   1.261       .  A
C189        O191   1.260       .  A
C189        O195   1.265       .  A
C189        C206   1.469       .  S
In196       O198   2.284       .  S
In196       O199   2.222       .  S
In196       O207   2.247       .  S
In196       O201   2.253       .  S
In196       O203   2.181       .  S
In196       O204   2.218       .  S
In196       O205   2.314       .  S
In196       O208   2.286       .  S
C197        O203   1.253       .  A
C197        O205   1.265       .  A
C197        C318   1.478       .  S
O198        C206   1.265       .  A
O199        C206   1.259       .  A
C200        O207   1.259       .  A
C200        O201   1.260       .  A
C202        O204   1.256       .  A
C202        O208   1.264       .  A
In209       O211   2.289       .  S
In209       O212   2.222       .  S
In209       O220   2.254       .  S
In209       O214   2.249       .  S
In209       O216   2.190       .  S
In209       O217   2.227       .  S
In209       O218   2.337       .  S
In209       O221   2.292       .  S
C210        O216   1.251       .  A
C210        O218   1.264       .  A
C210        C378   1.483       .  S
O211        C219   1.264       .  A
O212        C219   1.257       .  A
C213        O220   1.261       .  A
C213        O214   1.259       .  A
C215        O217   1.259       .  A
C215        O221   1.266       .  A
C215        C245   1.472       .  S
C219        C228   1.466       .  S
In222       O224   2.290       .  S
In222       O225   2.207       .  S
In222       O233   2.267       .  S
In222       O227   2.264       .  S
In222       O229   2.341       .  S
In222       O230   2.216       .  S
In222       O231   2.172       .  S
In222       O234   2.284       .  S
C223        O229   1.268       .  A
C223        O231   1.250       .  A
C223        C366   1.486       .  S
O224        C232   1.265       .  A
O225        C232   1.257       .  A
C226        O233   1.260       .  A
C226        O227   1.261       .  A
C228        O230   1.259       .  A
C228        O234   1.265       .  A
C232        C254   1.465       .  S
In235       O237   2.298       .  S
In235       O238   2.226       .  S
In235       O246   2.256       .  S
In235       O240   2.260       .  S
In235       O242   2.353       .  S
In235       O243   2.226       .  S
In235       O244   2.187       .  S
In235       O247   2.271       .  S
C236        O242   1.266       .  A
C236        O244   1.250       .  A
C236        C426   1.493       .  S
O237        C245   1.265       .  A
O238        C245   1.256       .  A
C239        O246   1.260       .  A
C239        O240   1.262       .  A
C241        O243   1.259       .  A
C241        O247   1.264       .  A
C241        C258   1.464       .  S
In248       O250   2.271       .  S
In248       O251   2.226       .  S
In248       O259   2.243       .  S
In248       O253   2.248       .  S
In248       O255   2.187       .  S
In248       O256   2.207       .  S
In248       O257   2.317       .  S
In248       O260   2.295       .  S
C249        O255   1.252       .  A
C249        O257   1.264       .  A
C249        C414   1.480       .  S
O250        C258   1.264       .  A
O251        C258   1.259       .  A
C252        O259   1.259       .  A
C252        O253   1.260       .  A
C254        O256   1.255       .  A
C254        O260   1.265       .  A
In261       O263   2.274       .  S
In261       O264   2.222       .  S
In261       O272   2.264       .  S
In261       O266   2.246       .  S
In261       O268   2.192       .  S
In261       O269   2.222       .  S
In261       O270   2.326       .  S
In261       O273   2.286       .  S
C262        O268   1.252       .  A
C262        O270   1.265       .  A
C262        C438   1.482       .  S
O263        C271   1.262       .  A
O264        C271   1.258       .  A
C265        O272   1.261       .  A
C265        O266   1.259       .  A
C267        O269   1.258       .  A
C267        O273   1.265       .  A
C267        C284   1.469       .  S
C271        C306   1.461       .  S
In274       O276   2.289       .  S
In274       O277   2.225       .  S
In274       O285   2.245       .  S
In274       O279   2.248       .  S
In274       O281   2.332       .  S
In274       O282   2.224       .  S
In274       O283   2.174       .  S
In274       O286   2.280       .  S
C275        O281   1.265       .  A
C275        O283   1.253       .  A
C275        C450   1.484       .  S
O276        C284   1.264       .  A
O277        C284   1.256       .  A
C278        O285   1.259       .  A
C278        O279   1.260       .  A
C280        O282   1.258       .  A
C280        O286   1.264       .  A
C280        C297   1.466       .  S
In287       O289   2.280       .  S
In287       O290   2.225       .  S
In287       O298   2.261       .  S
In287       O292   2.255       .  S
In287       O294   2.341       .  S
In287       O295   2.229       .  S
In287       O296   2.194       .  S
In287       O299   2.298       .  S
C288        O294   1.267       .  A
C288        O296   1.253       .  A
C288        C354   1.492       .  S
O289        C297   1.263       .  A
O290        C297   1.258       .  A
C291        O298   1.261       .  A
C291        O292   1.260       .  A
C293        O295   1.257       .  A
C293        O299   1.264       .  A
C293        C310   1.474       .  S
In300       O302   2.307       .  S
In300       O303   2.233       .  S
In300       O311   2.255       .  S
In300       O305   2.258       .  S
In300       O307   2.343       .  S
In300       O308   2.214       .  S
In300       O309   2.196       .  S
In300       O312   2.266       .  S
C301        O307   1.265       .  A
C301        O309   1.252       .  A
C301        C342   1.491       .  S
O302        C310   1.263       .  A
O303        C310   1.253       .  A
C304        O311   1.260       .  A
C304        O305   1.260       .  A
C306        O308   1.260       .  A
C306        O312   1.265       .  A
C313        C314   1.545       .  S
C313        C319   1.552       .  S
C313        C317   1.561       .  S
C313        C932   1.547       .  S
C314        H321   1.087       .  S
C314        C315   1.352       .  D
C315        C942   1.472       .  S
C315        C316   1.524       .  S
C316        C320   1.524       .  S
C316        C318   1.537       .  S
C316        H322   1.110       .  S
C317        H323   1.077       .  S
C317        C318   1.379       .  D
C319        H324   1.087       .  S
C319        C320   1.361       .  D
C320        C952   1.486       .  S
C325        C326   1.546       .  S
C325        C331   1.539       .  S
C325        C329   1.575       .  S
C325        C912   1.542       .  S
C326        H333   1.086       .  S
C326        C327   1.358       .  D
C327        C955   1.479       .  S
C327        C328   1.519       .  S
C328        C332   1.519       .  S
C328        C330   1.535       .  S
C328        H334   1.111       .  S
C329        H335   1.084       .  S
C329        C330   1.393       .  D
C331        H336   1.087       .  S
C331        C332   1.347       .  D
C332        C925   1.466       .  S
C337        C338   1.548       .  S
C337        C343   1.554       .  S
C337        C341   1.564       .  S
C337        C885   1.556       .  S
C338        H345   1.084       .  S
C338        C339   1.360       .  D
C339        C892   1.488       .  S
C339        C340   1.529       .  S
C340        C344   1.531       .  S
C340        C342   1.533       .  S
C340        H346   1.110       .  S
C341        H347   1.085       .  S
C341        C342   1.379       .  D
C343        H348   1.084       .  S
C343        C344   1.363       .  D
C344        C902   1.485       .  S
C349        C350   1.549       .  S
C349        C355   1.540       .  S
C349        C353   1.570       .  S
C349        C862   1.549       .  S
C350        H357   1.087       .  S
C350        C351   1.354       .  D
C351        C905   1.482       .  S
C351        C352   1.527       .  S
C352        C356   1.530       .  S
C352        C354   1.540       .  S
C352        H358   1.110       .  S
C353        H359   1.079       .  S
C353        C354   1.387       .  D
C355        H360   1.087       .  S
C355        C356   1.353       .  D
C356        C872   1.482       .  S
C361        C362   1.546       .  S
C361        C367   1.547       .  S
C361        C365   1.570       .  S
C361        C832   1.550       .  S
C362        H369   1.087       .  S
C362        C363   1.355       .  D
C363        C852   1.474       .  S
C363        C364   1.524       .  S
C364        C368   1.527       .  S
C364        C366   1.538       .  S
C364        H370   1.111       .  S
C365        H371   1.077       .  S
C365        C366   1.382       .  D
C367        H372   1.087       .  S
C367        C368   1.354       .  D
C368        C845   1.480       .  S
C373        C374   1.553       .  S
C373        C379   1.550       .  S
C373        C377   1.572       .  S
C373        C812   1.558       .  S
C374        H381   1.087       .  S
C374        C375   1.358       .  D
C375        C825   1.479       .  S
C375        C376   1.518       .  S
C376        C380   1.519       .  S
C376        C378   1.533       .  S
C376        H382   1.112       .  S
C377        H383   1.078       .  S
C377        C378   1.385       .  D
C379        H384   1.087       .  S
C379        C380   1.355       .  D
C380        C855   1.472       .  S
C385        C386   1.537       .  S
C385        C391   1.535       .  S
C385        C389   1.569       .  S
C385        C795   1.534       .  S
C386        H393   1.087       .  S
C386        C387   1.351       .  D
C387        C922   1.468       .  S
C387        C388   1.528       .  S
C388        C392   1.531       .  S
C388        C390   1.542       .  S
C388        H394   1.111       .  S
C389        H395   1.083       .  S
C389        C390   1.385       .  D
C391        H396   1.087       .  S
C391        C392   1.356       .  D
C392        C802   1.478       .  S
C397        C398   1.550       .  S
C397        C403   1.550       .  S
C397        C401   1.559       .  S
C397        C785   1.541       .  S
C398        H405   1.085       .  S
C398        C399   1.361       .  D
C399        C805   1.473       .  S
C399        C400   1.524       .  S
C400        C404   1.521       .  S
C400        C402   1.531       .  S
C400        H406   1.111       .  S
C401        H407   1.085       .  S
C401        C402   1.375       .  D
C403        H408   1.083       .  S
C403        C404   1.357       .  D
C404        C945   1.473       .  S
C409        C410   1.554       .  S
C409        C415   1.550       .  S
C409        C413   1.555       .  S
C409        C782   1.542       .  S
C410        H417   1.085       .  S
C410        C411   1.361       .  D
C411        C842   1.473       .  S
C411        C412   1.522       .  S
C412        C416   1.521       .  S
C412        C414   1.532       .  S
C412        H418   1.111       .  S
C413        H419   1.085       .  S
C413        C414   1.374       .  D
C415        H420   1.083       .  S
C415        C416   1.359       .  D
C416        C772   1.473       .  S
C421        C422   1.540       .  S
C421        C427   1.545       .  S
C421        C425   1.569       .  S
C421        C765   1.541       .  S
C422        H429   1.087       .  S
C422        C423   1.353       .  D
C423        C775   1.475       .  S
C423        C424   1.528       .  S
C424        C428   1.529       .  S
C424        C426   1.543       .  S
C424        H430   1.111       .  S
C425        H431   1.084       .  S
C425        C426   1.388       .  D
C427        H432   1.087       .  S
C427        C428   1.356       .  D
C428        C822   1.483       .  S
C433        C434   1.545       .  S
C433        C439   1.551       .  S
C433        C437   1.566       .  S
C433        C792   1.550       .  S
C434        H441   1.087       .  S
C434        C435   1.351       .  D
C435        C752   1.467       .  S
C435        C436   1.518       .  S
C436        C440   1.528       .  S
C436        C438   1.534       .  S
C436        H442   1.111       .  S
C437        H443   1.075       .  S
C437        C438   1.378       .  D
C439        H444   1.086       .  S
C439        C440   1.364       .  D
C440        C895   1.487       .  S
C445        C446   1.549       .  S
C445        C451   1.549       .  S
C445        C449   1.571       .  S
C445        C762   1.552       .  S
C446        H453   1.087       .  S
C446        C447   1.355       .  D
C447        C875   1.477       .  S
C447        C448   1.520       .  S
C448        C452   1.517       .  S
C448        C450   1.534       .  S
C448        H454   1.111       .  S
C449        H455   1.078       .  S
C449        C450   1.386       .  D
C451        H456   1.087       .  S
C451        C452   1.353       .  D
C452        C755   1.470       .  S
C457        C458   1.543       .  S
C457        C463   1.548       .  S
C457        C461   1.569       .  S
C457        C815   1.548       .  S
C458        H465   1.086       .  S
C458        C459   1.355       .  D
C459        C742   1.479       .  S
C459        C460   1.526       .  S
C460        C464   1.523       .  S
C460        C462   1.537       .  S
C460        H466   1.109       .  S
C461        H467   1.084       .  S
C461        C462   1.385       .  D
C463        H468   1.085       .  S
C463        C464   1.364       .  D
C464        C735   1.489       .  S
C469        C470   1.538       .  S
C469        C475   1.539       .  S
C469        C473   1.568       .  S
C469        C865   1.537       .  S
C470        H477   1.087       .  S
C470        C471   1.359       .  D
C471        C732   1.489       .  S
C471        C472   1.530       .  S
C472        C476   1.530       .  S
C472        C474   1.541       .  S
C472        H478   1.107       .  S
C473        H479   1.084       .  S
C473        C474   1.385       .  D
C475        H480   1.087       .  S
C475        C476   1.352       .  D
C476        C722   1.476       .  S
C481        C482   1.554       .  S
C481        C487   1.552       .  S
C481        C485   1.560       .  S
C481        C882   1.557       .  S
C482        H489   1.084       .  S
C482        C483   1.369       .  D
C483        C712   1.496       .  S
C483        C484   1.532       .  S
C484        C488   1.528       .  S
C484        C486   1.534       .  S
C484        H490   1.109       .  S
C485        H491   1.085       .  S
C485        C486   1.377       .  D
C487        H492   1.083       .  S
C487        C488   1.358       .  D
C488        C702   1.482       .  S
C493        C494   1.554       .  S
C493        C499   1.548       .  S
C493        C497   1.567       .  S
C493        C915   1.555       .  S
C494        H501   1.086       .  S
C494        C495   1.360       .  D
C495        C705   1.485       .  S
C495        C496   1.523       .  S
C496        C500   1.519       .  S
C496        C498   1.533       .  S
C496        H502   1.111       .  S
C497        H503   1.077       .  S
C497        C498   1.381       .  D
C499        H504   1.087       .  S
C499        C500   1.355       .  D
C500        C692   1.478       .  S
C505        C506   1.536       .  S
C505        C511   1.541       .  S
C505        C509   1.569       .  S
C505        C935   1.533       .  S
C506        H513   1.087       .  S
C506        C507   1.348       .  D
C507        C682   1.472       .  S
C507        C508   1.527       .  S
C508        C512   1.526       .  S
C508        C510   1.541       .  S
C508        H514   1.111       .  S
C509        H515   1.084       .  S
C509        C510   1.389       .  D
C511        H516   1.087       .  S
C511        C512   1.354       .  D
C512        C672   1.478       .  S
C517        C518   1.543       .  S
C517        C523   1.543       .  S
C517        C521   1.565       .  S
C517        C835   1.537       .  S
C518        H525   1.087       .  S
C518        C519   1.357       .  D
C519        C675   1.477       .  S
C519        C520   1.525       .  S
C520        C524   1.527       .  S
C520        C522   1.538       .  S
C520        H526   1.111       .  S
C521        H527   1.083       .  S
C521        C522   1.382       .  D
C523        H528   1.087       .  S
C523        C524   1.355       .  D
C524        C662   1.480       .  S
C529        C530   1.551       .  S
C529        C535   1.540       .  S
C529        C533   1.568       .  S
C529        C655   1.543       .  S
C530        H537   1.086       .  S
C530        C531   1.361       .  D
C531        C665   1.481       .  S
C531        C532   1.521       .  S
C532        C536   1.525       .  S
C532        C534   1.529       .  S
C532        H538   1.113       .  S
C533        H539   1.083       .  S
C533        C534   1.382       .  D
C535        H540   1.086       .  S
C535        C536   1.358       .  D
C536        C642   1.474       .  S
C541        C542   1.547       .  S
C541        C547   1.550       .  S
C541        C545   1.568       .  S
C541        C652   1.552       .  S
C542        H549   1.087       .  S
C542        C543   1.357       .  D
C543        C632   1.478       .  S
C543        C544   1.527       .  S
C544        C548   1.521       .  S
C544        C546   1.531       .  S
C544        H550   1.112       .  S
C545        H551   1.077       .  S
C545        C546   1.382       .  D
C547        H552   1.087       .  S
C547        C548   1.354       .  D
C548        C745   1.478       .  S
C553        C554   1.549       .  S
C553        C559   1.553       .  S
C553        C557   1.556       .  S
C553        C625   1.544       .  S
C554        H561   1.084       .  S
C554        C555   1.358       .  D
C555        C612   1.482       .  S
C555        C556   1.529       .  S
C556        C560   1.532       .  S
C556        C558   1.533       .  S
C556        H562   1.110       .  S
C557        H563   1.085       .  S
C557        C558   1.374       .  D
C559        H564   1.084       .  S
C559        C560   1.364       .  D
C560        C715   1.492       .  S
C565        C566   1.550       .  S
C565        C571   1.552       .  S
C565        C569   1.555       .  S
C565        C622   1.543       .  S
C566        H573   1.083       .  S
C566        C567   1.358       .  D
C567        C725   1.476       .  S
C567        C568   1.524       .  S
C568        C572   1.528       .  S
C568        C570   1.530       .  S
C568        H574   1.111       .  S
C569        H575   1.085       .  S
C569        C570   1.373       .  D
C571        H576   1.084       .  S
C571        C572   1.363       .  D
C572        C635   1.482       .  S
C577        C578   1.545       .  S
C577        C583   1.546       .  S
C577        C581   1.570       .  S
C577        C602   1.549       .  S
C578        H585   1.087       .  S
C578        C579   1.357       .  D
C579        C645   1.477       .  S
C579        C580   1.524       .  S
C580        C584   1.523       .  S
C580        C582   1.527       .  S
C580        H586   1.112       .  S
C581        H587   1.077       .  S
C581        C582   1.382       .  D
C583        H588   1.087       .  S
C583        C584   1.353       .  D
C584        C685   1.471       .  S
C589        C590   1.542       .  S
C589        C595   1.543       .  S
C589        C593   1.566       .  S
C589        C605   1.539       .  S
C590        H597   1.087       .  S
C590        C591   1.360       .  D
C591        C695   1.482       .  S
C591        C592   1.527       .  S
C592        C596   1.530       .  S
C592        C594   1.540       .  S
C592        H598   1.110       .  S
C593        H599   1.083       .  S
C593        C594   1.381       .  D
C595        H600   1.087       .  S
C595        C596   1.356       .  D
C596        C615   1.479       .  S
C601        C602   1.409       .  A
C601        C606   1.383       .  A
C601        H608   1.085       .  S
C602        C603   1.422       .  A
C603        C604   1.419       .  A
C603       Br610   1.911       .  S
C604        C605   1.413       .  A
C604        H609   1.080       .  S
C605        C606   1.417       .  A
C606       Br607   1.929       .  S
C611        C612   1.402       .  A
C611        C616   1.404       .  A
C611        H618   1.083       .  S
C612        C613   1.409       .  A
C613        C614   1.393       .  A
C613       Br620   1.912       .  S
C614        C615   1.397       .  A
C614        H619   1.084       .  S
C615        C616   1.412       .  A
C616       Br617   1.914       .  S
C621        C622   1.409       .  A
C621        C626   1.403       .  A
C621        H628   1.082       .  S
C622        C623   1.418       .  A
C623        C624   1.403       .  A
C623       Br630   1.924       .  S
C624        C625   1.410       .  A
C624        H629   1.082       .  S
C625        C626   1.417       .  A
C626       Br627   1.922       .  S
C631        C632   1.397       .  A
C631        C636   1.394       .  A
C631        H638   1.083       .  S
C632        C633   1.411       .  A
C633        C634   1.403       .  A
C633       Br640   1.919       .  S
C634        C635   1.405       .  A
C634        H639   1.083       .  S
C635        C636   1.408       .  A
C636       Br637   1.911       .  S
C641        C642   1.400       .  A
C641        C646   1.394       .  A
C641        H648   1.084       .  S
C642        C643   1.409       .  A
C643        C644   1.397       .  A
C643       Br650   1.919       .  S
C644        C645   1.403       .  A
C644        H649   1.084       .  S
C645        C646   1.408       .  A
C646       Br647   1.910       .  S
C651        C652   1.409       .  A
C651        C656   1.384       .  A
C651        H658   1.084       .  S
C652        C653   1.424       .  A
C653        C654   1.422       .  A
C653       Br660   1.913       .  S
C654        C655   1.414       .  A
C654        H659   1.080       .  S
C655        C656   1.417       .  A
C656       Br657   1.929       .  S
C661        C662   1.403       .  A
C661        C666   1.404       .  A
C661        H668   1.084       .  S
C662        C663   1.407       .  A
C663        C664   1.397       .  A
C663       Br670   1.915       .  S
C664        C665   1.401       .  A
C664        H669   1.083       .  S
C665        C666   1.409       .  A
C666       Br667   1.914       .  S
C671        C672   1.402       .  A
C671        C676   1.399       .  A
C671        H678   1.084       .  S
C672        C673   1.406       .  A
C673        C674   1.397       .  A
C673       Br680   1.909       .  S
C674        C675   1.401       .  A
C674        H679   1.084       .  S
C675        C676   1.411       .  A
C676       Br677   1.919       .  S
C681        C682   1.404       .  A
C681        C686   1.400       .  A
C681        H688   1.083       .  S
C682        C683   1.404       .  A
C683        C684   1.390       .  A
C683       Br690   1.912       .  S
C684        C685   1.398       .  A
C684        H689   1.080       .  S
C685        C686   1.408       .  A
C686       Br687   1.919       .  S
C691        C692   1.401       .  A
C691        C696   1.399       .  A
C691        H698   1.084       .  S
C692        C693   1.410       .  A
C693        C694   1.398       .  A
C693       Br700   1.921       .  S
C694        C695   1.403       .  A
C694        H699   1.084       .  S
C695        C696   1.411       .  A
C696       Br697   1.916       .  S
C701        C702   1.399       .  A
C701        C706   1.394       .  A
C701        H708   1.084       .  S
C702        C703   1.411       .  A
C703        C704   1.406       .  A
C703       Br710   1.917       .  S
C704        C705   1.404       .  A
C704        H709   1.083       .  S
C705        C706   1.409       .  A
C706       Br707   1.912       .  S
C711        C712   1.407       .  A
C711        C716   1.406       .  A
C711        H718   1.083       .  S
C712        C713   1.413       .  A
C713        C714   1.400       .  A
C713       Br720   1.918       .  S
C714        C715   1.402       .  A
C714        H719   1.084       .  S
C715        C716   1.415       .  A
C716       Br717   1.921       .  S
C721        C722   1.406       .  A
C721        C726   1.403       .  A
C721        H728   1.083       .  S
C722        C723   1.403       .  A
C723        C724   1.391       .  A
C723       Br730   1.914       .  S
C724        C725   1.402       .  A
C724        H729   1.082       .  S
C725        C726   1.407       .  A
C726       Br727   1.917       .  S
C731        C732   1.406       .  A
C731        C736   1.398       .  A
C731        H738   1.083       .  S
C732        C733   1.411       .  A
C733        C734   1.396       .  A
C733       Br740   1.917       .  S
C734        C735   1.405       .  A
C734        H739   1.080       .  S
C735        C736   1.412       .  A
C736       Br737   1.920       .  S
C741        C742   1.400       .  A
C741        C746   1.399       .  A
C741        H748   1.083       .  S
C742        C743   1.411       .  A
C743        C744   1.401       .  A
C743       Br750   1.917       .  S
C744        C745   1.401       .  A
C744        H749   1.083       .  S
C745        C746   1.409       .  A
C746       Br747   1.917       .  S
C751        C752   1.398       .  A
C751        C756   1.393       .  A
C751        H758   1.084       .  S
C752        C753   1.406       .  A
C753        C754   1.400       .  A
C753       Br760   1.918       .  S
C754        C755   1.402       .  A
C754        H759   1.083       .  S
C755        C756   1.407       .  A
C756       Br757   1.916       .  S
C761        C762   1.408       .  A
C761        C766   1.379       .  A
C761        H768   1.085       .  S
C762        C763   1.424       .  A
C763        C764   1.425       .  A
C763       Br770   1.912       .  S
C764        C765   1.415       .  A
C764        H769   1.081       .  S
C765        C766   1.418       .  A
C766       Br767   1.933       .  S
C771        C772   1.400       .  A
C771        C776   1.400       .  A
C771        H778   1.083       .  S
C772        C773   1.408       .  A
C773        C774   1.398       .  A
C773       Br780   1.919       .  S
C774        C775   1.401       .  A
C774        H779   1.084       .  S
C775        C776   1.407       .  A
C776       Br777   1.914       .  S
C781        C782   1.410       .  A
C781        C786   1.402       .  A
C781        H788   1.082       .  S
C782        C783   1.418       .  A
C783        C784   1.403       .  A
C783       Br790   1.923       .  S
C784        C785   1.409       .  A
C784        H789   1.083       .  S
C785        C786   1.416       .  A
C786       Br787   1.923       .  S
C791        C792   1.408       .  A
C791        C796   1.383       .  A
C791        H798   1.085       .  S
C792        C793   1.427       .  A
C793        C794   1.417       .  A
C793       Br800   1.910       .  S
C794        C795   1.407       .  A
C794        H799   1.080       .  S
C795        C796   1.419       .  A
C796       Br797   1.931       .  S
C801        C802   1.404       .  A
C801        C806   1.397       .  A
C801        H808   1.084       .  S
C802        C803   1.409       .  A
C803        C804   1.395       .  A
C803       Br810   1.915       .  S
C804        C805   1.401       .  A
C804        H809   1.084       .  S
C805        C806   1.409       .  A
C806       Br807   1.920       .  S
C811        C812   1.408       .  A
C811        C816   1.384       .  A
C811        H818   1.084       .  S
C812        C813   1.426       .  A
C813        C814   1.426       .  A
C813       Br820   1.913       .  S
C814        C815   1.416       .  A
C814        H819   1.081       .  S
C815        C816   1.418       .  A
C816       Br817   1.930       .  S
C821        C822   1.405       .  A
C821        C826   1.405       .  A
C821        H828   1.082       .  S
C822        C823   1.409       .  A
C823        C824   1.397       .  A
C823       Br830   1.915       .  S
C824        C825   1.400       .  A
C824        H829   1.084       .  S
C825        C826   1.408       .  A
C826       Br827   1.917       .  S
C831        C832   1.409       .  A
C831        C836   1.383       .  A
C831        H838   1.084       .  S
C832        C833   1.424       .  A
C833        C834   1.420       .  A
C833       Br840   1.912       .  S
C834        C835   1.412       .  A
C834        H839   1.080       .  S
C835        C836   1.417       .  A
C836       Br837   1.933       .  S
C841        C842   1.398       .  A
C841        C846   1.394       .  A
C841        H848   1.084       .  S
C842        C843   1.406       .  A
C843        C844   1.404       .  A
C843       Br850   1.917       .  S
C844        C845   1.405       .  A
C844        H849   1.083       .  S
C845        C846   1.409       .  A
C846       Br847   1.913       .  S
C851        C852   1.403       .  A
C851        C856   1.399       .  A
C851        H858   1.084       .  S
C852        C853   1.405       .  A
C853        C854   1.398       .  A
C853       Br860   1.915       .  S
C854        C855   1.401       .  A
C854        H859   1.082       .  S
C855        C856   1.407       .  A
C856       Br857   1.919       .  S
C861        C862   1.408       .  A
C861        C866   1.379       .  A
C861        H868   1.085       .  S
C862        C863   1.423       .  A
C863        C864   1.423       .  A
C863       Br870   1.911       .  S
C864        C865   1.413       .  A
C864        H869   1.081       .  S
C865        C866   1.419       .  A
C866       Br867   1.935       .  S
C871        C872   1.405       .  A
C871        C876   1.400       .  A
C871        H878   1.083       .  S
C872        C873   1.406       .  A
C873        C874   1.396       .  A
C873       Br880   1.911       .  S
C874        C875   1.401       .  A
C874        H879   1.084       .  S
C875        C876   1.410       .  A
C876       Br877   1.919       .  S
C881        C882   1.413       .  A
C881        C886   1.407       .  A
C881        H888   1.081       .  S
C882        C883   1.416       .  A
C883        C884   1.410       .  A
C883       Br890   1.920       .  S
C884        C885   1.414       .  A
C884        H889   1.081       .  S
C885        C886   1.420       .  A
C886       Br887   1.925       .  S
C891        C892   1.406       .  A
C891        C896   1.404       .  A
C891        H898   1.083       .  S
C892        C893   1.407       .  A
C893        C894   1.398       .  A
C893       Br900   1.910       .  S
C894        C895   1.403       .  A
C894        H899   1.083       .  S
C895        C896   1.412       .  A
C896       Br897   1.919       .  S
C901        C902   1.404       .  A
C901        C906   1.404       .  A
C901        H908   1.083       .  S
C902        C903   1.408       .  A
C903        C904   1.395       .  A
C903       Br910   1.911       .  S
C904        C905   1.400       .  A
C904        H909   1.083       .  S
C905        C906   1.411       .  A
C906       Br907   1.918       .  S
C911        C912   1.412       .  A
C911        C916   1.425       .  A
C911        H918   1.082       .  S
C912        C913   1.421       .  A
C913        C914   1.381       .  A
C913       Br920   1.935       .  S
C914        C915   1.405       .  A
C914        H919   1.084       .  S
C915        C916   1.429       .  A
C916       Br917   1.912       .  S
C921        C922   1.398       .  A
C921        C926   1.389       .  A
C921        H928   1.084       .  S
C922        C923   1.410       .  A
C923        C924   1.397       .  A
C923       Br930   1.914       .  S
C924        C925   1.400       .  A
C924        H929   1.084       .  S
C925        C926   1.404       .  A
C926       Br927   1.911       .  S
C931        C932   1.404       .  A
C931        C936   1.376       .  A
C931        H938   1.085       .  S
C932        C933   1.427       .  A
C933        C934   1.422       .  A
C933       Br940   1.913       .  S
C934        C935   1.410       .  A
C934        H939   1.082       .  S
C935        C936   1.420       .  A
C936       Br937   1.937       .  S
C941        C942   1.397       .  A
C941        C946   1.392       .  A
C941        H948   1.084       .  S
C942        C943   1.410       .  A
C943        C944   1.402       .  A
C943       Br950   1.918       .  S
C944        C945   1.402       .  A
C944        H949   1.083       .  S
C945        C946   1.407       .  A
C946       Br947   1.915       .  S
C951        C952   1.405       .  A
C951        C956   1.401       .  A
C951        H958   1.084       .  S
C952        C953   1.412       .  A
C953        C954   1.398       .  A
C953       Br960   1.914       .  S
C954        C955   1.400       .  A
C954        H959   1.084       .  S
C955        C956   1.408       .  A
C956       Br957   1.919       .  S
