geometry optimzed in LAMMPS
_audit_creation_date              2020-11-30 
_audit_creation_method            'lammps2cif' 
_symmetry_space_group_name_H-M    'P1' 
_symmetry_Int_Tables_number       1 
_symmetry_cell_setting            triclinic 
loop_ 
_symmetry_equiv_pos_as_xyz 
  x,y,z 
_cell_length_a                    50.7902579 
_cell_length_b                    50.77105097121815 
_cell_length_c                    50.610447119626116 
_cell_angle_alpha                 89.96560223950499 
_cell_angle_beta                  90.1181630433602 
_cell_angle_gamma                 89.9906141705112 
loop_ 
_atom_site_label 
_atom_site_type_symbol 
_atom_site_fract_x 
_atom_site_fract_y 
_atom_site_fract_z 
_atom_site_charge 
Zn1        Zn  0.26625175  0.74338220  0.52313406     1.49700
Zn2        Zn  0.25504074  0.72078446  0.46393499     1.49400
Zn3        Zn  0.26005640  0.68173766  0.51348019     1.49100
Zn4        Zn  0.21328773  0.72075701  0.50564398     1.49500
O5          O  0.24983237  0.71615501  0.50155046    -1.84500
O6          O  0.28312022  0.76846219  0.49795370    -0.75100
O7          O  0.28167796  0.69450299  0.45272398    -0.75000
O8          O  0.28771632  0.68520889  0.54145829    -0.74500
O9          O  0.26983085  0.75759069  0.45725002    -0.75200
O10         O  0.29428346  0.72796300  0.54832449    -0.74800
O11         O  0.28007564  0.66322826  0.48337559    -0.75300
O12         O  0.19961813  0.69638617  0.53274945    -0.74700
O13         O  0.22215102  0.71134524  0.44221658    -0.75500
O14         O  0.22838479  0.66350252  0.53126324    -0.74900
O15         O  0.19259394  0.71205042  0.47391065    -0.75300
O16         O  0.20647413  0.75773137  0.51412729    -0.75300
O17         O  0.23918187  0.76695227  0.54135152    -0.75000
C18         C  0.28187813  0.77299442  0.47320914     0.76700
C19         C  0.28909985  0.67223716  0.46152550     0.77200
C20         C  0.30019238  0.70385395  0.55264715     0.76200
C21         C  0.20653206  0.67324492  0.53934113     0.76600
C22         C  0.19856182  0.70788475  0.45003603     0.77700
C23         C  0.21710796  0.77292449  0.53085623     0.76800
Zn24       Zn  0.75952869  0.72104414  0.03592990     1.49700
Zn25       Zn  0.76371130  0.68430236  0.98628041     1.49400
Zn26       Zn  0.71619988  0.72408640  0.99314175     1.49100
Zn27       Zn  0.77178199  0.74615607  0.97888053     1.49500
O28         O  0.75328012  0.71885481  0.99835958    -1.84500
O29         O  0.78683760  0.69452855  0.04625067    -0.75100
O30         O  0.73368738  0.66709604  0.96585540    -0.75000
O31         O  0.69527916  0.71688647  0.02575045    -0.74500
O32         O  0.78125763  0.66317197  0.01602303    -0.75200
O33         O  0.72598227  0.71120764  0.05634065    -0.74800
O34         O  0.70311730  0.69831057  0.96701467    -0.75300
O35         O  0.74673511  0.77041999  0.95982017    -0.74700
O36         O  0.79252329  0.68790896  0.96012173    -0.75500
O37         O  0.70874641  0.75984007  0.97873200    -0.74900
O38         O  0.80014791  0.73065305  0.95440379    -0.75300
O39         O  0.78743816  0.77080805  0.00499294    -0.75300
O40         O  0.77462996  0.75697140  0.04459346    -0.75000
C41         C  0.79185020  0.67164959  0.03735712     0.76700
C42         C  0.71142224  0.67632472  0.95850970     0.77200
C43         C  0.70189551  0.71030696  0.04905624     0.76200
C44         C  0.72252283  0.77510518  0.96437559     0.76600
C45         C  0.80548893  0.70651829  0.94960325     0.77700
C46         C  0.78621939  0.77382550  0.02989159     0.76800
Zn47       Zn  0.21078508  0.50255660  0.21325775     1.49700
Zn48       Zn  0.17153278  0.50014914  0.26034446     1.49400
Zn49       Zn  0.23243345  0.48612622  0.26741010     1.49100
Zn50       Zn  0.21321645  0.54538360  0.25405839     1.49500
O51         O  0.20688865  0.50846358  0.24983548    -1.84500
O52         O  0.18655944  0.47410962  0.20334132    -0.75100
O53         O  0.17279776  0.47356555  0.28892954    -0.75000
O54         O  0.25486632  0.46609418  0.24047972    -0.74500
O55         O  0.15242218  0.48106322  0.23016012    -0.75200
O56         O  0.24717711  0.49095524  0.20520077    -0.74800
O57         O  0.21446191  0.46143720  0.29430592    -0.75300
O58         O  0.24970080  0.55062015  0.26890720    -0.74700
O59         O  0.15461381  0.53125974  0.27938074    -0.75500
O60         O  0.25752502  0.51055339  0.28581487    -0.74900
O61         O  0.18833539  0.55864541  0.28109793    -0.75300
O62         O  0.20435680  0.56611260  0.22070883    -0.75300
O63         O  0.20021559  0.53366001  0.19165808    -0.75000
C64         C  0.16318696  0.46913031  0.21066308     0.76700
C65         C  0.19009957  0.45960353  0.30039939     0.77200
C66         C  0.26041007  0.47314422  0.21690218     0.76200
C67         C  0.26315419  0.53493246  0.28333092     0.76600
C68         C  0.16555751  0.55188031  0.28882879     0.77700
C69         C  0.19830794  0.55783986  0.19770582     0.76800
Zn70       Zn  0.49384419  0.21887958  0.21213056     1.49700
Zn71       Zn  0.49314993  0.26709498  0.17355486     1.49400
Zn72       Zn  0.48297199  0.27561710  0.23587067     1.49100
Zn73       Zn  0.53843074  0.25923856  0.21446066     1.49500
O74         O  0.50144477  0.25555782  0.20896965    -1.84500
O75         O  0.46650470  0.20927177  0.18581433    -0.75100
O76         O  0.46786676  0.29765065  0.17616512    -0.75000
O77         O  0.46757031  0.25035969  0.26287576    -0.74500
O78         O  0.47218347  0.23876368  0.15372036    -0.75200
O79         O  0.47978310  0.21144177  0.24788679    -0.74800
O80         O  0.45596218  0.30062360  0.21845064    -0.75300
O81         O  0.54544591  0.27224215  0.25136963    -0.74700
O82         O  0.52666672  0.27966069  0.15482429    -0.75500
O83         O  0.50909650  0.29590107  0.25823610    -0.74900
O84         O  0.55168932  0.28681034  0.18988692    -0.75300
O85         O  0.55830714  0.22564674  0.20427584    -0.75300
O86         O  0.52578238  0.19661101  0.20425740    -0.75000
C87         C  0.46104509  0.21816603  0.16296484     0.76700
C88         C  0.45357712  0.30769552  0.19425539     0.77200
C89         C  0.46980731  0.22553775  0.26601232     0.76200
C90         C  0.53264216  0.28956838  0.26435302     0.76600
C91         C  0.54734593  0.28953815  0.16531026     0.77700
C92         C  0.54984763  0.20233281  0.20020294     0.76800
Zn93       Zn  0.21115096  0.22247214  0.49206687     1.49700
Zn94       Zn  0.25076493  0.22368258  0.53720244     1.49400
Zn95       Zn  0.25993440  0.18497592  0.48940441     1.49100
Zn96       Zn  0.26829967  0.24722226  0.48228982     1.49500
O97         O  0.24796630  0.21955837  0.49976610    -1.84500
O98         O  0.18830890  0.21235486  0.52332318    -0.75100
O99         O  0.27671450  0.19741019  0.55074992    -0.75000
O100        O  0.23173873  0.16547848  0.46856496    -0.74500
O101        O  0.21705219  0.21521744  0.55615754    -0.75200
O102        O  0.20226361  0.19751538  0.46336518    -0.74800
O103        O  0.27606050  0.16554870  0.52049771    -0.75300
O104        O  0.29466462  0.23140749  0.45550012    -0.74700
O105        O  0.26296767  0.26015023  0.54569640    -0.75500
O106        O  0.28897116  0.18873387  0.46332867    -0.74900
O107        O  0.28595528  0.27068429  0.50988144    -0.75300
O108        O  0.24307600  0.27228897  0.46426042    -0.75300
O109        O  0.20383687  0.25859592  0.47853082    -0.75000
C110        C  0.19408212  0.20987907  0.54769785     0.76700
C111        C  0.28353938  0.17460545  0.54281668     0.77200
C112        C  0.21136278  0.17502511  0.45724776     0.76200
C113        C  0.30031350  0.20727067  0.45089729     0.76600
C114        C  0.27890926  0.27531578  0.53366107     0.77700
C115        C  0.21826377  0.27534234  0.46659878     0.76800
Zn116      Zn  0.71494542  0.51370379  0.20926349     1.49700
Zn117      Zn  0.67372611  0.51919957  0.25640927     1.49400
Zn118      Zn  0.71387874  0.47384881  0.25354671     1.49100
Zn119      Zn  0.73481680  0.53162057  0.26427491     1.49500
O120        O  0.70918414  0.51015757  0.24622837    -1.84500
O121        O  0.68942477  0.53959496  0.19608539    -0.75100
O122        O  0.65348336  0.48636449  0.27000512    -0.75000
O123        O  0.70446524  0.45078089  0.22158616    -0.74500
O124        O  0.65778862  0.54071337  0.22629719    -0.75200
O125        O  0.70602774  0.48050902  0.18962891    -0.74800
O126        O  0.68930679  0.46473605  0.28216585    -0.75300
O127        O  0.76192984  0.50766652  0.27985660    -0.74700
O128        O  0.67535747  0.54381201  0.28751621    -0.75500
O129        O  0.74979685  0.46737847  0.26822917    -0.74900
O130        O  0.71760684  0.55415335  0.29307145    -0.75300
O131        O  0.75603554  0.55298559  0.23851581    -0.75300
O132        O  0.75147666  0.52812952  0.20245863    -0.75000
C133        C  0.66754508  0.54836547  0.20428163     0.76700
C134        C  0.66457867  0.46791763  0.28325239     0.77200
C135        C  0.70145638  0.45710294  0.19734617     0.76200
C136        C  0.76604008  0.48296758  0.27936163     0.76600
C137        C  0.69344312  0.55618959  0.29978389     0.77700
C138        C  0.76347532  0.54600800  0.21551794     0.76800
Zn139      Zn  0.00472033  0.25417920  0.32157022     1.49700
Zn140      Zn  0.00274917  0.30066126  0.28298485     1.49400
Zn141      Zn  0.02007945  0.24792002  0.26087070     1.49100
Zn142      Zn  0.96133344  0.26016569  0.27845220     1.49500
O143        O  0.99759399  0.26449990  0.28618580    -1.84500
O144        O  0.02287321  0.28475461  0.34041682    -0.75100
O145        O  0.01057553  0.30862179  0.24570190    -0.75000
O146        O  0.04557541  0.22211809  0.27944490    -0.74500
O147        O  0.03214998  0.31066339  0.30594803    -0.75200
O148        O  0.03137624  0.22459088  0.32098317    -0.74800
O149        O  0.03794029  0.27557090  0.23783455    -0.75300
O150        O  0.95666462  0.24797115  0.24106145    -0.74700
O151        O  0.97207419  0.32101208  0.29582090    -0.75500
O152        O  0.99606904  0.22899417  0.23570325    -0.74900
O153        O  0.93971545  0.29276023  0.28854562    -0.75300
O154        O  0.94895453  0.23112520  0.30146559    -0.75300
O155        O  0.97089220  0.23985487  0.33818069    -0.75000
C156        C  0.03543959  0.30390761  0.32989670     0.76700
C157        C  0.02815119  0.29789497  0.23152255     0.77200
C158        C  0.04658702  0.21464171  0.30361483     0.76200
C159        C  0.97214887  0.23254731  0.22871474     0.76600
C160        C  0.94780881  0.31520648  0.29649483     0.77700
C161        C  0.95197394  0.22824584  0.32619089     0.76800
Zn162      Zn  0.82328411  0.99935695  0.24457582     1.49700
Zn163      Zn  0.78190563  0.04562141  0.25065702     1.49400
Zn164      Zn  0.76197677  0.98820121  0.23526540     1.49100
Zn165      Zn  0.78305508  0.00084241  0.29199726     1.49500
O166        O  0.78767339  0.00827355  0.25504254    -1.84500
O167        O  0.84184729  0.03139357  0.22766527    -0.75100
O168        O  0.74676378  0.05298018  0.23362322    -0.75000
O169        O  0.77959566  0.96288386  0.20897634    -0.74500
O170        O  0.80883933  0.05994446  0.22601205    -0.75200
O171        O  0.82142198  0.97427998  0.21441034    -0.74800
O172        O  0.73895395  0.01367857  0.21550198    -0.75300
O173        O  0.74618894  0.98775549  0.29950935    -0.74700
O174        O  0.78834207  0.06514160  0.28470295    -0.75500
O175        O  0.73710889  0.96950691  0.26045281    -0.74900
O176        O  0.79342770  0.03256077  0.31361553    -0.75300
O177        O  0.80789067  0.97225553  0.30232359    -0.75300
O178        O  0.84146105  0.97781279  0.27443575    -0.75000
C179        C  0.83192051  0.05307218  0.21928903     0.76700
C180        C  0.73372150  0.03810490  0.21809070     0.77200
C181        C  0.80386902  0.96080249  0.20269671     0.76200
C182        C  0.73177060  0.97329630  0.28480891     0.76600
C183        C  0.79483199  0.05687284  0.30757424     0.77700
C184        C  0.83099897  0.96657494  0.29457325     0.76800
Zn185      Zn  0.71201129  0.79368044  0.49541148     1.49700
Zn186      Zn  0.75982378  0.83225062  0.49191139     1.49400
Zn187      Zn  0.75074584  0.79306647  0.53951466     1.49100
Zn188      Zn  0.76815544  0.77057695  0.48313065     1.49500
O189        O  0.74855458  0.79760448  0.50211716    -1.84500
O190        O  0.70214171  0.81865571  0.46754411    -0.75100
O191        O  0.77794962  0.84963750  0.52295985    -0.75000
O192        O  0.71724358  0.80265732  0.55887765    -0.74500
O193        O  0.72987040  0.85216280  0.47391072    -0.75200
O194        O  0.68851499  0.80301967  0.52601899    -0.74800
O195        O  0.77770224  0.81780389  0.55319399    -0.75300
O196        O  0.78371671  0.74513221  0.51060468    -0.74700
O197        O  0.78843815  0.82978756  0.46493032    -0.75500
O198        O  0.76225886  0.75635864  0.54714863    -0.74900
O199        O  0.79708842  0.78717626  0.45963287    -0.75300
O200        O  0.74229791  0.74946423  0.46036160    -0.75300
O201        O  0.70518484  0.75798734  0.48172891    -0.75000
C202        C  0.70972990  0.84197175  0.46270992     0.76700
C203        C  0.78554745  0.84017469  0.54509420     0.77200
C204        C  0.69407480  0.80672110  0.55020519     0.76200
C205        C  0.77761713  0.74089440  0.53477066     0.76600
C206        C  0.80190121  0.81140031  0.45456650     0.77700
C207        C  0.71792047  0.74494803  0.46452351     0.76800
C208        C  0.92018422  0.84798937  0.35078992     0.86100
C209        C  0.93723972  0.86387220  0.36978127    -0.54100
C210        C  0.92384357  0.88082162  0.38546301     0.09000
C211        C  0.89331585  0.87953104  0.38164998     0.20000
C212        C  0.89978964  0.83389534  0.36860187    -0.54900
C213        C  0.88567377  0.85009671  0.38502559     0.09100
C214        C  0.90303240  0.86859276  0.33623236    -0.54400
C215        C  0.88863120  0.88521962  0.35193602     0.09700
H216        H  0.95861329  0.86282215  0.36983571     0.14200
H217        H  0.88190432  0.89231173  0.39492988     0.00000
H218        H  0.89523378  0.81321243  0.36738434     0.14500
H219        H  0.90261230  0.86997870  0.31483758     0.14300
C220        C  0.84030317  0.16441922  0.41715396     0.86100
C221        C  0.82607610  0.14623676  0.39753239    -0.54100
C222        C  0.84203981  0.13091324  0.38214427     0.09000
C223        C  0.87156524  0.13608197  0.38747629     0.20000
C224        C  0.85949947  0.14616890  0.43263389    -0.54900
C225        C  0.87538038  0.13055718  0.41712987     0.09100
C226        C  0.85931017  0.18063999  0.40047373    -0.54400
C227        C  0.87542629  0.16640635  0.38476346     0.09700
H228        H  0.80477289  0.14587318  0.39586928     0.14200
H229        H  0.88432073  0.12374911  0.37518235     0.00000
H230        H  0.86208245  0.14651692  0.45381391     0.14500
H231        H  0.86041481  0.20201200  0.40138178     0.14300
C232        C  0.85401282  0.92758422  0.65758769     0.86100
C233        C  0.87358199  0.90770858  0.66987981    -0.54100
C234        C  0.88664832  0.89219511  0.65206696     0.09000
C235        C  0.88050024  0.89952977  0.62295054     0.20000
C236        C  0.87257561  0.94365312  0.63971578    -0.54900
C237        C  0.88605174  0.92949243  0.62111572     0.09100
C238        C  0.83695572  0.91122703  0.63876313    -0.54400
C239        C  0.85027480  0.89705959  0.62030932     0.09700
H240        H  0.87879650  0.90705339  0.69058081     0.14200
H241        H  0.89169707  0.88769956  0.60840530     0.00000
H242        H  0.87558053  0.96462629  0.64215647     0.14500
H243        H  0.81557123  0.91145924  0.63956450     0.14300
C244        C  0.14966871  0.09450650  0.33642268     0.86100
C245        C  0.12876775  0.07876653  0.35230120    -0.54100
C246        C  0.11499778  0.09311768  0.37074605     0.09000
C247        C  0.12273776  0.12253993  0.37041994     0.20000
C248        C  0.13250653  0.11639426  0.32389476    -0.54900
C249        C  0.11817077  0.13139730  0.34134634     0.09100
C250        C  0.16646154  0.10825457  0.35692745    -0.54400
C251        C  0.15314677  0.12271095  0.37465441     0.09700
H252        H  0.12452361  0.05817406  0.34876031     0.14200
H253        H  0.11127265  0.13409919  0.38472823     0.00000
H254        H  0.13111226  0.11917880  0.30274800     0.14500
H255        H  0.18781077  0.10646612  0.35761387     0.14300
C256        C  0.08051174  0.16493466  0.65148879     0.86100
C257        C  0.10212647  0.17921513  0.63542571    -0.54100
C258        C  0.11669401  0.16333127  0.61921179     0.09000
C259        C  0.10940275  0.13395852  0.62205647     0.20000
C260        C  0.06492519  0.14851722  0.63107636    -0.54900
C261        C  0.07986383  0.13239616  0.61511510     0.09100
C262        C  0.09640334  0.14467031  0.66709403    -0.54400
C263        C  0.11079857  0.12790518  0.65222093     0.09700
H264        H  0.10681002  0.19988722  0.63729404     0.14200
H265        H  0.12188461  0.12183061  0.60934276     0.00000
H266        H  0.04360074  0.14914655  0.63010270     0.14500
H267        H  0.09591829  0.14314928  0.68851494     0.14300
C268        C  0.15920819  0.86225506  0.56818505     0.86100
C269        C  0.14120166  0.88192969  0.55392097    -0.54100
C270        C  0.12515144  0.89642091  0.57012814     0.09000
C271        C  0.12864367  0.88928326  0.59979799     0.20000
C272        C  0.17408553  0.87891661  0.58879807    -0.54900
C273        C  0.15841855  0.89294807  0.60558939     0.09100
C274        C  0.14047888  0.84542161  0.58515270    -0.54400
C275        C  0.12401437  0.85924767  0.60099621     0.09700
H276        H  0.14094389  0.88393434  0.53256447     0.14200
H277        H  0.11602891  0.90046659  0.61362277     0.00000
H278        H  0.19515486  0.87902809  0.59107908     0.14500
H279        H  0.13972297  0.82404918  0.58426239     0.14300
Zn280      Zn  0.00421902  0.04954472  0.48687240     1.49700
Zn281      Zn  0.96195727  0.00327390  0.48900279     1.49400
Zn282      Zn  0.02229255  0.99043840  0.47183232     1.49100
Zn283      Zn  0.00714021  0.00684220  0.53188376     1.49500
O284        O  0.99905734  0.01223667  0.49459467    -1.84500
O285        O  0.97067964  0.06691640  0.47542583    -0.75100
O286        O  0.95906833  0.97271838  0.46371583    -0.75000
O287        O  0.04289729  0.01368349  0.44551195    -0.74500
O288        O  0.94212602  0.03387324  0.47267005    -0.75200
O289        O  0.02929589  0.05377146  0.45685763    -0.74800
O290        O  0.00017701  0.96365472  0.45130749    -0.75300
O291        O  0.03674275  0.98161962  0.53538889    -0.74700
O292        O  0.94428827  0.99136056  0.52298180    -0.75500
O293        O  0.04841435  0.96961950  0.49479593    -0.74900
O294        O  0.97716210  0.99004434  0.55170699    -0.75300
O295        O  0.01938718  0.04013481  0.54981095    -0.75300
O296        O  0.02046659  0.06946211  0.51729796    -0.75000
C297        C  0.94819697  0.05794563  0.46892367     0.76700
C298        C  0.97545683  0.95915440  0.45044994     0.77200
C299        C  0.04336231  0.03869657  0.44264659     0.76200
C300        C  0.05102296  0.96817331  0.51986616     0.76600
C301        C  0.95330133  0.98530386  0.54572001     0.77700
C302        C  0.02525131  0.06292317  0.54109078     0.76800
Zn303      Zn  0.75142050  0.29615333  0.46663735     1.49700
Zn304      Zn  0.76730670  0.27550912  0.52287041     1.49400
Zn305      Zn  0.75923613  0.33772973  0.51199891     1.49100
Zn306      Zn  0.71183843  0.29910269  0.50884228     1.49500
O307        O  0.74841243  0.30245381  0.50337248    -1.84500
O308        O  0.76331258  0.25893347  0.46076239    -0.75100
O309        O  0.79311814  0.29335942  0.54932831    -0.75000
O310        O  0.77491144  0.35513044  0.47864027    -0.74500
O311        O  0.78820671  0.25371688  0.49641746    -0.75200
O312        O  0.77945567  0.31937854  0.45344381    -0.74800
O313        O  0.78878600  0.33575990  0.53859735    -0.75300
O314        O  0.70220582  0.32204698  0.53827939    -0.74700
O315        O  0.74009316  0.24980328  0.53944131    -0.75500
O316        O  0.72891453  0.35635611  0.53168631    -0.74900
O317        O  0.70348580  0.26243758  0.51857382    -0.75300
O318        O  0.68994351  0.31144236  0.47825806    -0.75300
O319        O  0.71867292  0.30725075  0.44574526    -0.75000
C320        C  0.78178931  0.24699338  0.47297980     0.76700
C321        C  0.79977458  0.31759509  0.55206255     0.77200
C322        C  0.78421285  0.34347667  0.45820146     0.76200
C323        C  0.70935260  0.34545598  0.54334845     0.76600
C324        C  0.71576344  0.24641019  0.53347621     0.77700
C325        C  0.69589674  0.31372967  0.45402841     0.76800
Zn326      Zn  0.01791393  0.74576202  0.66781542     1.49700
Zn327      Zn  0.01277389  0.79513460  0.70800465     1.49400
Zn328      Zn  0.97009500  0.75380514  0.70712312     1.49100
Zn329      Zn  0.02642118  0.73947608  0.73003814     1.49500
O330        O  0.00722005  0.75802578  0.70267875    -1.84500
O331        O  0.03854065  0.77616367  0.65037293    -0.75100
O332        O  0.98089739  0.81721628  0.69964575    -0.75000
O333        O  0.95801957  0.72716245  0.68199218    -0.74500
O334        O  0.03963572  0.80665075  0.68209794    -0.75200
O335        O  0.98540272  0.72973673  0.64778280    -0.74800
O336        O  0.94975534  0.78716500  0.69674913    -0.75300
O337        O  0.00090856  0.72400990  0.75543579    -0.74700
O338        O  0.02546578  0.80198727  0.74507271    -0.75500
O339        O  0.96181150  0.73900001  0.74309115    -0.74900
O340        O  0.04610641  0.76419735  0.75356789    -0.75300
O341        O  0.05060408  0.71117671  0.71511673    -0.75300
O342        O  0.04449978  0.71599843  0.67178255    -0.75000
C343        C  0.04709097  0.79806842  0.65971067     0.76700
C344        C  0.95731702  0.81096656  0.69409065     0.77200
C345        C  0.96383298  0.72169543  0.65825811     0.76200
C346        C  0.97630189  0.72625700  0.75927850     0.76600
C347        C  0.04028771  0.78780950  0.75959567     0.77700
C348        C  0.05551154  0.70453883  0.69132302     0.76800
C349        C  0.15561440  0.58506514  0.65425971     0.86100
C350        C  0.14232661  0.60721339  0.67000699    -0.54100
C351        C  0.12334079  0.62047719  0.65647124     0.09000
C352        C  0.12018321  0.61123963  0.62722116     0.20000
C353        C  0.13274300  0.56811909  0.64383244    -0.54900
C354        C  0.11469519  0.58120428  0.62844647     0.09100
C355        C  0.16638817  0.60012058  0.63001237    -0.54400
C356        C  0.14796651  0.61329968  0.61541270     0.09700
H357        H  0.14766711  0.61248208  0.69009200     0.14200
H358        H  0.10554250  0.62235721  0.61553582     0.00000
H359        H  0.13145681  0.54723939  0.64809698     0.14500
H360        H  0.18716149  0.60149802  0.62530265     0.14300
C361        C  0.15342535  0.35822140  0.41863140     0.86100
C362        C  0.16606036  0.37605479  0.39760252    -0.54100
C363        C  0.14898983  0.39154262  0.38359555     0.09000
C364        C  0.12006500  0.38827048  0.39280723     0.20000
C365        C  0.13881008  0.37872007  0.43610637    -0.54900
C366        C  0.12071724  0.39397082  0.42283453     0.09100
C367        C  0.13161999  0.34322151  0.40424701    -0.54400
C368        C  0.11435651  0.35851514  0.39056472     0.09700
H369        H  0.18713830  0.37692633  0.39445202     0.14200
H370        H  0.10570799  0.40068764  0.38196230     0.00000
H371        H  0.14296368  0.38190021  0.45685586     0.14500
H372        H  0.13031089  0.32185094  0.40436237     0.14300
C373        C  0.83645216  0.65851841  0.58852886     0.86100
C374        C  0.85209191  0.63949619  0.57072922    -0.54100
C375        C  0.87035083  0.62443067  0.58371834     0.09000
C376        C  0.87143078  0.62994366  0.61379389     0.20000
C377        C  0.82488221  0.64126613  0.61013806    -0.54900
C378        C  0.84256824  0.62605986  0.62330056     0.09100
C379        C  0.85856988  0.67445050  0.60182987    -0.54400
C380        C  0.87705638  0.66002386  0.61533330     0.09700
H381        H  0.85097949  0.63940242  0.54940141     0.14200
H382        H  0.88574769  0.61760673  0.62475811     0.00000
H383        H  0.80390393  0.64057584  0.61427398     0.14500
H384        H  0.85999359  0.69569604  0.59970714     0.14300
C385        C  0.84678839  0.42925938  0.34287951     0.86100
C386        C  0.86740552  0.44512366  0.35863018    -0.54100
C387        C  0.88227012  0.43037686  0.37577794     0.09000
C388        C  0.87643578  0.40048124  0.37420774     0.20000
C389        C  0.86421724  0.40907036  0.32856825    -0.54900
C390        C  0.87944260  0.39367980  0.34454005     0.09100
C391        C  0.83165693  0.41378872  0.36375250    -0.54400
C392        C  0.84659426  0.39832374  0.37996379     0.09700
H393        H  0.87022398  0.46619844  0.35660361     0.14200
H394        H  0.88908129  0.38823268  0.38716570     0.00000
H395        H  0.86567839  0.40792431  0.30724954     0.14500
H396        H  0.81037252  0.41506042  0.36552998     0.14300
C397        C  0.92125471  0.35341920  0.65105710     0.86100
C398        C  0.89951055  0.33985957  0.63511658    -0.54100
C399        C  0.88508672  0.35622015  0.61936593     0.09000
C400        C  0.89471558  0.38547874  0.62038700     0.20000
C401        C  0.93779304  0.36673006  0.62898252    -0.54900
C402        C  0.92414061  0.38420435  0.61361477     0.09100
C403        C  0.90718097  0.37585313  0.66529959    -0.54400
C404        C  0.89454841  0.39416315  0.65001553     0.09700
H405        H  0.89580978  0.31882294  0.63611487     0.14200
H406        H  0.88418050  0.39758594  0.60603534     0.00000
H407        H  0.95804261  0.36213945  0.62446014     0.14500
H408        H  0.90661051  0.37612090  0.68666137     0.14300
C409        C  0.08108074  0.66592252  0.34727570     0.86100
C410        C  0.06473375  0.64979065  0.36692805    -0.54100
C411        C  0.07909340  0.63550620  0.38494953     0.09000
C412        C  0.10913604  0.63812575  0.38052093     0.20000
C413        C  0.10035509  0.68230669  0.36417333    -0.54900
C414        C  0.11507012  0.66791072  0.38155864     0.09100
C415        C  0.09939519  0.64566544  0.33420770    -0.54400
C416        C  0.11305546  0.63027578  0.35137268     0.09700
H417        H  0.04340240  0.64915585  0.36589814     0.14200
H418        H  0.12177206  0.62723359  0.39452793     0.00000
H419        H  0.10318507  0.70332148  0.36184408     0.14500
H420        H  0.10100977  0.64292161  0.31300476     0.14300
Zn421      Zn  0.00417778  0.50972724  0.46133252     1.49700
Zn422      Zn  0.95902239  0.50458378  0.50437530     1.49400
Zn423      Zn  0.01862902  0.49004902  0.51995292     1.49100
Zn424      Zn  0.00128835  0.55030760  0.50968382     1.49500
O425        O  0.99594677  0.51357184  0.49894038    -1.84500
O426        O  0.97320054  0.49629250  0.44005341    -0.75100
O427        O  0.95532057  0.47553546  0.53070013    -0.75000
O428        O  0.04443416  0.47024958  0.49597174    -0.74500
O429        O  0.94335601  0.48965313  0.47128573    -0.75200
O430        O  0.03227653  0.48237124  0.45571766    -0.74800
O431        O  0.99633974  0.46331224  0.54010564    -0.75300
O432        O  0.02811731  0.55244107  0.53852782    -0.74700
O433        O  0.93785742  0.53541288  0.51848291    -0.57900
O434        O  0.03919501  0.51109672  0.54730228    -0.74900
O435        O  0.96809454  0.56648052  0.52434523    -0.75300
O436        O  0.01587056  0.57248920  0.48017012    -0.75300
O437        O  0.01862377  0.54384126  0.44697450    -0.75000
C438        C  0.95093491  0.48746559  0.44744692     0.76700
C439        C  0.97149233  0.46060890  0.54266237     0.77200
C440        C  0.04678154  0.46863695  0.47088672     0.76200
C441        C  0.04113413  0.53572044  0.55192376     0.76600
C442        C  0.94454482  0.55820800  0.52665798     0.77700
C443        C  0.02262133  0.56666559  0.45670306     0.76800
C444        C  0.66017786  0.35785087  0.07733642     0.86100
C445        C  0.64320867  0.37930426  0.06402797    -0.54100
C446        C  0.62638568  0.39271953  0.08049237     0.09000
C447        C  0.62844914  0.38302099  0.10941667     0.20000
C448        C  0.67412667  0.37193803  0.10060155    -0.54900
C449        C  0.65784698  0.38613693  0.11686318     0.09100
C450        C  0.64052597  0.34014053  0.09161239    -0.54400
C451        C  0.62367150  0.35274916  0.10790017     0.09700
H452        H  0.64376835  0.38267792  0.04286603     0.14200
H453        H  0.61572838  0.39381227  0.12320267     0.00000
H454        H  0.69486703  0.37036672  0.10496886     0.14500
H455        H  0.63993248  0.31887214  0.08914364     0.14300
C456        C  0.58424340  0.67133427  0.15285635     0.86100
C457        C  0.60390872  0.68622987  0.13520355    -0.54100
C458        C  0.61900894  0.67062668  0.11923555     0.09000
C459        C  0.61249484  0.64093274  0.12203112     0.20000
C460        C  0.56788766  0.65392905  0.13345284    -0.54900
C461        C  0.58254402  0.63812016  0.11678864     0.09100
C462        C  0.60029382  0.65034899  0.16735319    -0.54400
C463        C  0.61509286  0.63466765  0.15175105     0.09700
H464        H  0.60575628  0.70752989  0.13552594     0.14200
H465        H  0.62518435  0.62863059  0.10929100     0.00000
H466        H  0.54671058  0.65195807  0.13437671     0.14500
H467        H  0.59885680  0.64696650  0.18851482     0.14300
C468        C  0.42043732  0.35086574  0.85093371     0.86100
C469        C  0.43769491  0.36390072  0.87280825    -0.54100
C470        C  0.42478015  0.38220239  0.88787556     0.09000
C471        C  0.39561329  0.38486445  0.88065322     0.20000
C472        C  0.39811256  0.33880398  0.86707271    -0.54900
C473        C  0.38461361  0.35614796  0.88249358     0.09100
C474        C  0.40731659  0.37333443  0.83598889    -0.54400
C475        C  0.39640321  0.39295838  0.85076552     0.09700
H476        H  0.45817528  0.35906095  0.87639964     0.14200
H477        H  0.38509232  0.39769198  0.89439024     0.00000
H478        H  0.39382743  0.31791216  0.86717774     0.14500
H479        H  0.40627218  0.37274257  0.81467450     0.14300
C480        C  0.33922282  0.66067394  0.92754165     0.86100
C481        C  0.32645767  0.64403835  0.90530142    -0.54100
C482        C  0.34339289  0.62733693  0.89230221     0.09000
C483        C  0.37233951  0.63005155  0.90217846     0.20000
C484        C  0.35344753  0.64054628  0.94520307    -0.54900
C485        C  0.37113490  0.62469519  0.93236191     0.09100
C486        C  0.36088467  0.67516311  0.91244470    -0.54400
C487        C  0.37841942  0.65980920  0.89960756     0.09700
H488        H  0.30614345  0.64602350  0.89911167     0.14200
H489        H  0.38671958  0.61735272  0.89176318     0.00000
H490        H  0.34979126  0.63914643  0.96627805     0.14500
H491        H  0.36173482  0.69649763  0.91088241     0.14300
C492        C  0.64904958  0.58762402  0.84501700     0.86100
C493        C  0.62989749  0.57149914  0.86228666    -0.54100
C494        C  0.61446872  0.58585321  0.87924665     0.09000
C495        C  0.61934821  0.61592361  0.87659909     0.20000
C496        C  0.62980043  0.60647667  0.83063479    -0.54900
C497        C  0.61500544  0.62201071  0.84695651     0.09100
C498        C  0.66430403  0.60488312  0.86445215    -0.54400
C499        C  0.64928466  0.61924773  0.88131506     0.09700
H500        H  0.62844145  0.55029126  0.86096153     0.14200
H501        H  0.60681801  0.62832483  0.88944731     0.00000
H502        H  0.62665289  0.60667902  0.80947555     0.14500
H503        H  0.68568516  0.60487882  0.86554027     0.14300
C504        C  0.34462517  0.42172504  0.15656367     0.86100
C505        C  0.36180814  0.40103213  0.17125912    -0.54100
C506        C  0.37951953  0.38770206  0.15546941     0.09000
C507        C  0.37753968  0.39606194  0.12594973     0.20000
C508        C  0.36418109  0.43937049  0.14201692    -0.54900
C509        C  0.38124170  0.42636692  0.12582678     0.09100
C510        C  0.33164285  0.40482884  0.13525810    -0.54400
C511        C  0.34820482  0.39173843  0.11891931     0.09700
H512        H  0.35946582  0.39644615  0.19205059     0.14200
H513        H  0.39147396  0.38566086  0.11273186     0.00000
H514        H  0.36412934  0.46068126  0.14394175     0.14500
H515        H  0.31049319  0.40201292  0.13401242     0.14300
Zn516      Zn  0.52148751  0.48594858  0.98304366     1.49700
Zn517      Zn  0.50808902  0.50510846  0.04339901     1.49400
Zn518      Zn  0.50311985  0.54556267  0.99578370     1.49100
Zn519      Zn  0.46214951  0.49828406  0.00118424     1.49500
O520        O  0.49901603  0.50853977  0.00576684    -1.84500
O521        O  0.54680623  0.46456011  0.00616268    -0.75100
O522        O  0.52272408  0.53948466  0.05827461    -0.75000
O523        O  0.52795009  0.54869889  0.96552280    -0.74500
O524        O  0.53674016  0.47772364  0.04695275    -0.75200
O525        O  0.54351683  0.50854972  0.95759558    -0.74800
O526        O  0.51993547  0.56769713  0.02495593    -0.75300
O527        O  0.43978227  0.52843134  0.98803944    -0.74700
O528        O  0.47701218  0.49233238  0.06567971    -0.75500
O529        O  0.46855450  0.56112349  0.98382174    -0.74900
O530        O  0.44704524  0.48452804  0.03485600    -0.75300
O531        O  0.45798937  0.46923570  0.97492547    -0.75300
O532        O  0.49862824  0.46032807  0.96132839    -0.75000
C533        C  0.55019618  0.46354126  0.03115822     0.76700
C534        C  0.52702894  0.56227014  0.04850987     0.77200
C535        C  0.54332879  0.53331853  0.95313611     0.76200
C536        C  0.44527727  0.55201514  0.98153962     0.76600
C537        C  0.45440771  0.48373377  0.05885988     0.77700
C538        C  0.47380908  0.45615246  0.96064367     0.76800
Zn539      Zn  0.29509235  0.50347924  0.78862078     1.49700
Zn540      Zn  0.28902956  0.54982823  0.75078802     1.49400
Zn541      Zn  0.33342526  0.50540887  0.74164394     1.49100
Zn542      Zn  0.27328200  0.49190642  0.73181399     1.49500
O543        O  0.29777797  0.51272282  0.75232136    -1.84500
O544        O  0.30348166  0.53407649  0.81252650    -0.75100
O545        O  0.31528783  0.56681848  0.72714086    -0.75000
O546        O  0.35434468  0.48951698  0.77254825    -0.74500
O547        O  0.29469071  0.56820771  0.78655986    -0.75200
O548        O  0.32087430  0.47601400  0.79730175    -0.74800
O549        O  0.34819425  0.53807249  0.72460815    -0.75300
O550        O  0.29234393  0.46710468  0.70601756    -0.74700
O551        O  0.25303426  0.55467515  0.73296797    -0.75500
O552        O  0.33416895  0.47847607  0.71242578    -0.74900
O553        O  0.24979877  0.51633209  0.71154911    -0.75300
O554        O  0.24776262  0.47342553  0.75632205    -0.75300
O555        O  0.25989347  0.48890699  0.79567639    -0.75000
C556        C  0.30236254  0.55880904  0.80870553     0.76700
C557        C  0.33792793  0.56027275  0.71872115     0.77200
C558        C  0.34514022  0.47561644  0.79152069     0.76200
C559        C  0.31678204  0.46503681  0.70033501     0.76600
C560        C  0.24198033  0.53980083  0.71578772     0.77700
C561        C  0.24381048  0.47641894  0.78103207     0.76800
C562        C  0.65594342  0.66014227  0.41702114     0.86100
C563        C  0.64163469  0.64204311  0.43614462    -0.54100
C564        C  0.62549269  0.62428482  0.42433011     0.09000
C565        C  0.62504374  0.62616205  0.39349539     0.20000
C566        C  0.67016889  0.64159702  0.39753079    -0.54900
C567        C  0.65429028  0.62386735  0.38469808     0.09100
C568        C  0.63433102  0.67237369  0.39954536    -0.54400
C569        C  0.61767444  0.65508557  0.38742994     0.09700
H570        H  0.64354461  0.64360600  0.45747500     0.14200
H571        H  0.61201386  0.61192709  0.38350180     0.00000
H572        H  0.69087577  0.64320405  0.39298502     0.14500
H573        H  0.63238425  0.69347140  0.39682079     0.14300
C574        C  0.64883906  0.42376415  0.66466784     0.86100
C575        C  0.63094834  0.44311283  0.64919760    -0.54100
C576        C  0.61489104  0.43158762  0.63083038     0.09000
C577        C  0.61852745  0.40140260  0.62908288     0.20000
C578        C  0.63011652  0.40283835  0.67580063    -0.54900
C579        C  0.61398542  0.39101574  0.65761160     0.09100
C580        C  0.66380422  0.40963330  0.64243449    -0.54400
C581        C  0.64838907  0.39754110  0.62400689     0.09700
H582        H  0.63195464  0.46429238  0.65078531     0.14200
H583        H  0.60563121  0.39237882  0.61389953     0.00000
H584        H  0.63009472  0.39743420  0.69655609     0.14500
H585        H  0.68516546  0.40900992  0.64140939     0.14300
C586        C  0.42537722  0.67077686  0.64852368     0.86100
C587        C  0.44016102  0.65400142  0.62809693    -0.54100
C588        C  0.42497298  0.63642468  0.61433050     0.09000
C589        C  0.39538769  0.63813268  0.62175838     0.20000
C590        C  0.40332391  0.68423942  0.63233967    -0.54900
C591        C  0.38772355  0.66748874  0.61810718     0.09100
C592        C  0.41014263  0.65095187  0.66552826    -0.54400
C593        C  0.39475059  0.63366922  0.65199691     0.09700
H594        H  0.46127697  0.65543116  0.62528864     0.14200
H595        H  0.38260618  0.62449413  0.61044871     0.00000
H596        H  0.39891560  0.70497818  0.63253180     0.14500
H597        H  0.41151404  0.65054537  0.68696634     0.14300
C598        C  0.34476573  0.58550285  0.34617379     0.86100
C599        C  0.35827722  0.60754430  0.33077920    -0.54100
C600        C  0.37639630  0.62133729  0.34486558     0.09000
C601        C  0.37820914  0.61281928  0.37452492     0.20000
C602        C  0.36742247  0.56927859  0.35797492    -0.54900
C603        C  0.38432278  0.58280793  0.37421119     0.09100
C604        C  0.33239042  0.60079008  0.36949541    -0.54400
C605        C  0.34976169  0.61461092  0.38479553     0.09700
H606        H  0.35380128  0.61241135  0.31038524     0.14200
H607        H  0.39169914  0.62460358  0.38681492     0.00000
H608        H  0.36963654  0.54851726  0.35356858     0.14500
H609        H  0.31137993  0.60157889  0.37319912     0.14300
C610        C  0.58423194  0.35140296  0.34667626     0.86100
C611        C  0.60666589  0.33987354  0.36330585    -0.54100
C612        C  0.61833381  0.35704862  0.38061921     0.09000
C613        C  0.60718412  0.38547796  0.37815349     0.20000
C614        C  0.56549503  0.36467137  0.36669210    -0.54900
C615        C  0.57729791  0.38263917  0.38307465     0.09100
C616        C  0.59636966  0.37523352  0.33252043    -0.54400
C617        C  0.60922135  0.39251389  0.34849434     0.09700
H618        H  0.61241911  0.31932343  0.36184859     0.14200
H619        H  0.61634455  0.40026088  0.39133117     0.00000
H620        H  0.54444018  0.36152520  0.36696450     0.14500
H621        H  0.59552865  0.37809099  0.31126701     0.14300
C622        C  0.33698958  0.35908172  0.58439955     0.86100
C623        C  0.32832609  0.37928287  0.60508812    -0.54100
C624        C  0.34845392  0.39319469  0.61646579     0.09000
C625        C  0.37602194  0.38589336  0.60515496     0.20000
C626        C  0.35366713  0.37483081  0.56406330    -0.54900
C627        C  0.37369961  0.38939845  0.57488461     0.09100
C628        C  0.35781328  0.34234821  0.59860847    -0.54400
C629        C  0.37854896  0.35563250  0.60909147     0.09700
H630        H  0.30792482  0.38169150  0.61100649     0.14200
H631        H  0.39249142  0.39755583  0.61346192     0.00000
H632        H  0.35107805  0.37359504  0.54285956     0.14500
H633        H  0.35639488  0.32110438  0.60007674     0.14300
Zn634      Zn  0.51170931  0.51344065  0.46373025     1.49700
Zn635      Zn  0.46456138  0.51632358  0.50604848     1.49400
Zn636      Zn  0.50701952  0.47073340  0.50956083     1.49100
Zn637      Zn  0.52429678  0.53055400  0.52389561     1.49500
O638        O  0.50203770  0.50795895  0.50095353    -1.84500
O639        O  0.48110669  0.52777254  0.44276520    -0.75100
O640        O  0.44321090  0.48533027  0.52091571    -0.75000
O641        O  0.52141009  0.45029545  0.47859934    -0.74500
O642        O  0.44831867  0.52900594  0.47182327    -0.75200
O643        O  0.52427042  0.47990387  0.44645732    -0.74800
O644        O  0.47265411  0.45352562  0.51987194    -0.75300
O645        O  0.54532368  0.50771136  0.54996983    -0.74700
O646        O  0.46097576  0.54625217  0.53156277    -0.75500
O647        O  0.53276058  0.46683811  0.54009167    -0.74900
O648        O  0.50148639  0.55696768  0.54454807    -0.75300
O649        O  0.55025850  0.55180605  0.50171928    -0.75300
O650        O  0.54109444  0.53978481  0.46040334    -0.75000
C651        C  0.45733636  0.53304644  0.44868443     0.76700
C652        C  0.44933458  0.46126280  0.52470675     0.77200
C653        C  0.52728791  0.45649534  0.45496040     0.76200
C654        C  0.54640420  0.48286025  0.55389616     0.76600
C655        C  0.47657063  0.56035956  0.54526118     0.77700
C656        C  0.55426838  0.55335197  0.47689280     0.76800
Zn657      Zn  0.50685145  0.74778300  0.83168904     1.49700
Zn658      Zn  0.51858367  0.74017809  0.76995830     1.49400
Zn659      Zn  0.46088432  0.74943535  0.79088365     1.49100
Zn660      Zn  0.50097322  0.79485106  0.79059192     1.49500
O661        O  0.49735653  0.75777575  0.79592520    -1.84500
O662        O  0.53203159  0.71687717  0.82977396    -0.75100
O663        O  0.49458014  0.72343857  0.74346197    -0.75000
O664        O  0.45154237  0.72124809  0.81638935    -0.74500
O665        O  0.54211011  0.71240244  0.78715869    -0.75200
O666        O  0.47410100  0.73414532  0.85173241    -0.74800
O667        O  0.45392746  0.73589877  0.75412432    -0.75300
O668        O  0.46707563  0.81302245  0.79944001    -0.74700
O669        O  0.53887996  0.76649867  0.74797376    -0.75500
O670        O  0.43769538  0.78058649  0.80037404    -0.74900
O671        O  0.51487678  0.80280790  0.75394530    -0.75300
O672        O  0.52746435  0.80822978  0.81629607    -0.75300
O673        O  0.52748578  0.77832434  0.84868364    -0.75000
C674        C  0.54453741  0.70532249  0.81127136     0.76700
C675        C  0.46999516  0.72455590  0.73853822     0.77200
C676        C  0.45515571  0.72112731  0.84125924     0.76200
C677        C  0.44383160  0.80466295  0.80377439     0.76600
C678        C  0.53237217  0.78987426  0.74137198     0.77700
C679        C  0.53544316  0.80010471  0.83869084     0.76800
Zn680      Zn  0.28803775  0.97104302  0.24950911     1.49700
Zn681      Zn  0.26727478  0.02690622  0.23119693     1.49400
Zn682      Zn  0.28938495  0.01726176  0.28916535     1.49100
Zn683      Zn  0.32877737  0.01779947  0.24126401     1.49500
O684        O  0.29338256  0.00858892  0.25245792    -1.84500
O685        O  0.25207171  0.96248144  0.23369617    -0.75100
O686        O  0.24055343  0.04437606  0.25498231    -0.75000
O687        O  0.29699289  0.98560880  0.31241747    -0.74500
O688        O  0.24500770  0.00013263  0.21209906    -0.75200
O689        O  0.29677859  0.95254547  0.28390402    -0.74800
O690        O  0.25329858  0.03247795  0.29534661    -0.75300
O691        O  0.34891461  0.03743274  0.27020531    -0.74700
O692        O  0.28465343  0.05296886  0.20502074    -0.75500
O693        O  0.31621116  0.04447903  0.29863562    -0.74900
O694        O  0.32681491  0.04344990  0.21141474    -0.75300
O695        O  0.34714111  0.98634280  0.22520597    -0.75300
O696        O  0.31463844  0.95701578  0.22470191    -0.75000
C697        C  0.23918269  0.97613607  0.21684587     0.76700
C698        C  0.23663524  0.04326810  0.27983457     0.77200
C699        C  0.30070020  0.96134067  0.30714778     0.76200
C700        C  0.33938288  0.04921149  0.29033449     0.76600
C701        C  0.30898436  0.05628716  0.19935541     0.77700
C702        C  0.33755029  0.96431233  0.21781259     0.76800
Zn703      Zn  0.28236794  0.79856877  0.00043476     1.49700
Zn704      Zn  0.22754766  0.77612786  0.98639212     1.49400
Zn705      Zn  0.24071563  0.80482701  0.04206814     1.49100
Zn706      Zn  0.23512947  0.83807591  0.99062308     1.49500
O707        O  0.24573492  0.80456398  0.00465758    -1.84500
O708        O  0.28894577  0.76131974  0.98982543    -0.75100
O709        O  0.21205666  0.75282549  0.01459564    -0.75000
O710        O  0.27373878  0.81690336  0.06222567    -0.74500
O711        O  0.25349215  0.75287640  0.96594768    -0.75200
O712        O  0.30411823  0.80901219  0.03200979    -0.74800
O713        O  0.22874621  0.76865505  0.05230177    -0.75300
O714        O  0.21559232  0.85980104  0.01795406    -0.74700
O715        O  0.19912528  0.79036607  0.96131818    -0.75500
O716        O  0.21178094  0.83021966  0.05015461    -0.74900
O717        O  0.20787649  0.83321432  0.96303111    -0.75300
O718        O  0.26537154  0.85458541  0.97113077    -0.75300
O719        O  0.29442480  0.82165151  0.97148226    -0.75000
C720        C  0.27714493  0.74748617  0.97250241     0.76700
C721        C  0.21595876  0.75117568  0.03948028     0.77200
C722        C  0.29775142  0.81719740  0.05485806     0.76200
C723        C  0.20501426  0.85187622  0.03940407     0.76600
C724        C  0.19478722  0.81401686  0.95386091     0.77700
C725        C  0.28651136  0.84380003  0.96284383     0.76800
C726        C  0.34699237  0.92560482  0.84323479     0.86100
C727        C  0.36737814  0.94022146  0.86029546    -0.54100
C728        C  0.38224297  0.92440309  0.87663484     0.09000
C729        C  0.37445108  0.89495684  0.87448197     0.20000
C730        C  0.36301415  0.90412635  0.82885704    -0.54900
C731        C  0.37726332  0.88789949  0.84496419     0.09100
C732        C  0.33050208  0.90983994  0.86311634    -0.54400
C733        C  0.34470618  0.89457606  0.87984311     0.09700
H734        H  0.36957466  0.96147606  0.85966483     0.14200
H735        H  0.38542638  0.88119055  0.88727962     0.00000
H736        H  0.36265684  0.90098106  0.80785360     0.14500
H737        H  0.30920461  0.91128048  0.86458328     0.14300
C738        C  0.65979861  0.85907916  0.91517876     0.86100
C739        C  0.67361389  0.87600547  0.89430835    -0.54100
C740        C  0.65743200  0.89123606  0.87922406     0.09000
C741        C  0.62807015  0.88888848  0.88705621     0.20000
C742        C  0.64514753  0.88033111  0.93135389    -0.54900
C743        C  0.62765271  0.89519134  0.91702130     0.09100
C744        C  0.63795794  0.84419137  0.90071723    -0.54400
C745        C  0.62144281  0.85913174  0.88558264     0.09700
H746        H  0.69486612  0.87668195  0.89221063     0.14200
H747        H  0.61530135  0.90171884  0.87486035     0.00000
H748        H  0.64853784  0.88439026  0.95204404     0.14500
H749        H  0.63543629  0.82306243  0.90300631     0.14300
C750        C  0.42265053  0.84831382  0.15031787     0.86100
C751        C  0.39947431  0.83700275  0.13410266    -0.54100
C752        C  0.38495862  0.85516323  0.12037430     0.09000
C753        C  0.39496557  0.88379669  0.12459677     0.20000
C754        C  0.43839384  0.86424317  0.12987595    -0.54900
C755        C  0.42445987  0.88324095  0.11679017     0.09100
C756        C  0.40895000  0.86883700  0.16792335    -0.54400
C757        C  0.39474902  0.88758840  0.15495792     0.09700
H758        H  0.39342505  0.81645022  0.13398284     0.14200
H759        H  0.38350767  0.89898153  0.11382941     0.00000
H760        H  0.45920225  0.86098124  0.12629876     0.14500
H761        H  0.41004928  0.86817582  0.18936299     0.14300
C762        C  0.33993495  0.15982140  0.08058439     0.86100
C763        C  0.35499250  0.14083743  0.06219875    -0.54100
C764        C  0.37329575  0.12532218  0.07440923     0.09000
C765        C  0.37487348  0.13021826  0.10463313     0.20000
C766        C  0.32850077  0.14239503  0.10248576    -0.54900
C767        C  0.34628119  0.12639298  0.11510978     0.09100
C768        C  0.36229489  0.17523855  0.09408259    -0.54400
C769        C  0.38016319  0.16016620  0.10726878     0.09700
H770        H  0.35279150  0.14053860  0.04099537     0.14200
H771        H  0.38997030  0.11774854  0.11430440     0.00000
H772        H  0.30780696  0.14301733  0.10777797     0.14500
H773        H  0.36376270  0.19658255  0.09363651     0.14300
C774        C  0.58280327  0.16326523  0.84603235     0.86100
C775        C  0.56716796  0.14776495  0.86663369    -0.54100
C776        C  0.58197101  0.13170887  0.88246852     0.09000
C777        C  0.61198615  0.13330854  0.87663579     0.20000
C778        C  0.60413532  0.17837819  0.86177234    -0.54900
C779        C  0.61921967  0.16301315  0.87826762     0.09100
C780        C  0.59927845  0.14273338  0.83148978    -0.54400
C781        C  0.61427749  0.12674119  0.84685913     0.09700
H782        H  0.54582498  0.14849952  0.86775651     0.14200
H783        H  0.62427140  0.12072362  0.88964075     0.00000
H784        H  0.60810023  0.19920042  0.85923040     0.14500
H785        H  0.59955621  0.14119800  0.81012819     0.14300
C786        C  0.65106127  0.08578361  0.15438096     0.86100
C787        C  0.63336466  0.10610411  0.16858056    -0.54100
C788        C  0.61765014  0.12118636  0.15250024     0.09000
C789        C  0.62092973  0.11350622  0.12293273     0.20000
C790        C  0.63213747  0.06907152  0.13822330    -0.54900
C791        C  0.61644488  0.08302936  0.12158527     0.09100
C792        C  0.66591173  0.10281919  0.13409893    -0.54400
C793        C  0.65051582  0.11737017  0.11743481     0.09700
H794        H  0.63394200  0.10941503  0.18956711     0.14200
H795        H  0.60884861  0.12537398  0.10944907     0.00000
H796        H  0.63159268  0.04770384  0.13936220     0.14500
H797        H  0.68724929  0.10332495  0.13305109     0.14300
Zn798      Zn  0.50460446  0.04478084  0.00680997     1.49700
Zn799      Zn  0.46274668  0.99853568  0.00316709     1.49400
Zn800      Zn  0.50874408  0.00230626  0.96034994     1.49100
Zn801      Zn  0.52303525  0.98401404  0.01907294     1.49500
O802        O  0.49989465  0.00732955  0.99765524    -1.84500
O803        O  0.47050812  0.06200501  0.01952129    -0.75100
O804        O  0.44701585  0.98334561  0.96974081    -0.75000
O805        O  0.52281974  0.03574080  0.94431925    -0.74500
O806        O  0.44100662  0.03000984  0.01577288    -0.75200
O807        O  0.52022071  0.06559622  0.97615300    -0.74800
O808        O  0.47875733  0.98589956  0.93980628    -0.75300
O809        O  0.54918005  0.96342359  0.99579111    -0.74700
O810        O  0.45979686  0.97014393  0.03108086    -0.75500
O811        O  0.53809313  0.97691708  0.95565907    -0.74900
O812        O  0.50082920  0.95787078  0.04080722    -0.75300
O813        O  0.54464600  0.00670846  0.04440351    -0.75300
O814        O  0.53084779  0.04768198  0.03637175    -0.75000
C815        C  0.44697634  0.05359117  0.02211272     0.76700
C816        C  0.45573491  0.97867899  0.94660036     0.77200
C817        C  0.52698597  0.05897889  0.95283497     0.76200
C818        C  0.55246626  0.96311364  0.97077331     0.76600
C819        C  0.47594213  0.95558628  0.04373036     0.77700
C820        C  0.54536081  0.03145648  0.04886828     0.76800
Zn821      Zn  0.02217984  0.77660934  0.23421633     1.49700
Zn822      Zn  0.96399088  0.76342472  0.21498727     1.49400
Zn823      Zn  0.00939477  0.77038696  0.17230522     1.49100
Zn824      Zn  0.00519642  0.72293142  0.21136019     1.49500
O825        O  0.00066438  0.75948704  0.20777563    -1.84500
O826        O  0.99760291  0.79365125  0.26052895    -0.75100
O827        O  0.95199239  0.79240825  0.19229147    -0.75000
O828        O  0.03758733  0.79873949  0.17402087    -0.74500
O829        O  0.95834886  0.77538840  0.25264458    -0.75200
O830        O  0.04705664  0.80372093  0.21676616    -0.74800
O831        O  0.97638841  0.78804075  0.15594922    -0.75300
O832        O  0.03249301  0.71178679  0.18700535    -0.74700
O833        O  0.94214632  0.73108002  0.20370749    -0.75500
O834        O  0.02695298  0.73911182  0.15289221    -0.74900
O835        O  0.97419303  0.70187421  0.20042151    -0.75300
O836        O  0.01613078  0.71479705  0.24786706    -0.75300
O837        O  0.04172539  0.74930478  0.25629542    -0.75000
C838        C  0.97350448  0.78981311  0.26664784     0.76700
C839        C  0.95654809  0.79777798  0.16822881     0.77200
C840        C  0.05055551  0.80991757  0.19248138     0.76200
C841        C  0.03757755  0.71874931  0.16349009     0.76600
C842        C  0.95014606  0.70797500  0.19788339     0.77700
C843        C  0.03370090  0.72609831  0.26173046     0.76800
Zn844      Zn  0.71510717  0.22032766  0.00216408     1.49700
Zn845      Zn  0.76813938  0.24243101  0.02052651     1.49400
Zn846      Zn  0.76130007  0.18088545  0.01001466     1.49100
Zn847      Zn  0.75847181  0.22054932  0.96090017     1.49500
O848        O  0.75188761  0.21574572  0.99825002    -1.84500
O849        O  0.70769869  0.25805657  0.01013869    -0.75100
O850        O  0.79422802  0.22619129  0.04722080    -0.75000
O851        O  0.72992240  0.16351356  0.02854668    -0.74500
O852        O  0.74028529  0.26595953  0.03780955    -0.75200
O853        O  0.70248084  0.19776245  0.03163373    -0.74800
O854        O  0.78886737  0.18371597  0.03808116    -0.75300
O855        O  0.78467727  0.19305076  0.95036991    -0.74700
O856        O  0.78775853  0.26695570  0.99640866    -0.75500
O857        O  0.78039258  0.16113382  0.98034117    -0.74900
O858        O  0.77572053  0.25652383  0.95519062    -0.75300
O859        O  0.72511569  0.21334224  0.93841319    -0.75300
O860        O  0.69531883  0.20882746  0.96999152    -0.75000
C861        C  0.71816802  0.27251924  0.02771959     0.76700
C862        C  0.80034876  0.20202297  0.05077655     0.77200
C863        C  0.70942916  0.17458750  0.03817641     0.76200
C864        C  0.79060365  0.17025785  0.95910249     0.76600
C865        C  0.78790847  0.27136516  0.97159598     0.77700
C866        C  0.70176600  0.20746258  0.94578842     0.76800
Zn867      Zn  0.21038558  0.96390995  0.75182276     1.49700
Zn868      Zn  0.23264311  0.02035119  0.76940866     1.49400
Zn869      Zn  0.21257475  0.01085358  0.71205936     1.49100
Zn870      Zn  0.17138074  0.01226215  0.75846324     1.49500
O871        O  0.20674694  0.00181410  0.74837623    -1.84500
O872        O  0.24660309  0.95492507  0.76763924    -0.75100
O873        O  0.25853628  0.04003346  0.74633992    -0.75000
O874        O  0.20524084  0.98022301  0.68850861    -0.74500
O875        O  0.25525447  0.99351787  0.78689824    -0.75200
O876        O  0.20179121  0.94639210  0.71610515    -0.74800
O877        O  0.24915961  0.02467595  0.70622462    -0.75300
O878        O  0.15279485  0.03221535  0.72873971    -0.74700
O879        O  0.21560613  0.04483032  0.79672022    -0.75500
O880        O  0.18675289  0.03879398  0.70171661    -0.74900
O881        O  0.17328370  0.03833210  0.78786893    -0.75300
O882        O  0.15170204  0.98187987  0.77540237    -0.75300
O883        O  0.18322676  0.95146409  0.77812475    -0.75000
C884        C  0.26040629  0.96924317  0.78320302     0.76700
C885        C  0.26392039  0.03761908  0.72187274     0.77200
C886        C  0.19997330  0.95613372  0.69284662     0.76200
C887        C  0.16334424  0.04394806  0.70907264     0.76600
C888        C  0.19130551  0.04951590  0.80118855     0.77700
C889        C  0.16056554  0.96015377  0.78453109     0.76800
C890        C  0.16546701  0.15275276  0.91924796     0.86100
C891        C  0.14765378  0.13531240  0.93690657    -0.54100
C892        C  0.12814897  0.12195795  0.92368648     0.09000
C893        C  0.12806548  0.12767347  0.89358408     0.20000
C894        C  0.17544199  0.13365300  0.89819161    -0.54900
C895        C  0.15640384  0.12065175  0.88436330     0.09100
C896        C  0.14551097  0.17067504  0.90505581    -0.54400
C897        C  0.12601860  0.15806794  0.89148469     0.09700
H898        H  0.14911838  0.13380193  0.95794711     0.14200
H899        H  0.11226985  0.11723160  0.88265068     0.00000
H900        H  0.19625690  0.13044612  0.89459126     0.14500
H901        H  0.14669232  0.19203338  0.90583056     0.14300
C902        C  0.15222409  0.92860357  0.15587440     0.86100
C903        C  0.12959181  0.94704701  0.14744477    -0.54100
C904        C  0.11111761  0.93591456  0.13106365     0.09000
C905        C  0.11588010  0.90615866  0.12663595     0.20000
C906        C  0.13863069  0.90503157  0.16922436    -0.54900
C907        C  0.11910255  0.89370816  0.15462823     0.09100
C908        C  0.16231078  0.91601205  0.12994461    -0.54400
C909        C  0.14339339  0.90502596  0.11405390     0.09700
H910        H  0.12894850  0.96748512  0.15353957     0.14200
H911        H  0.10050277  0.89699804  0.11433096     0.00000
H912        H  0.14426342  0.89718121  0.18833706     0.14500
H913        H  0.18299424  0.91520827  0.12470057     0.14300
C914        C  0.92045539  0.16605737  0.15185159     0.86100
C915        C  0.93551495  0.14866565  0.13243728    -0.54100
C916        C  0.92025541  0.13209860  0.11768039     0.09000
C917        C  0.89051569  0.13418650  0.12437406     0.20000
C918        C  0.89902287  0.18001096  0.13531464    -0.54900
C919        C  0.88353332  0.16365551  0.12058463     0.09100
C920        C  0.90437542  0.14656959  0.16872426    -0.54400
C921        C  0.88913575  0.12933538  0.15469946     0.09700
H922        H  0.95683083  0.14912687  0.13093318     0.14200
H923        H  0.87774864  0.12105360  0.11246820     0.00000
H924        H  0.89531753  0.20097925  0.13589248     0.14500
H925        H  0.90537041  0.14602105  0.19015898     0.14300
C926        C  0.84264518  0.86060106  0.08262691     0.86100
C927        C  0.82852555  0.87787892  0.10328494    -0.54100
C928        C  0.84453266  0.89391368  0.11795800     0.09000
C929        C  0.87392584  0.89163073  0.10987382     0.20000
C930        C  0.85689268  0.88150122  0.06586308    -0.54900
C931        C  0.87412224  0.89690597  0.07971194     0.09100
C932        C  0.86447685  0.84642979  0.09766295    -0.54400
C933        C  0.88053925  0.86195905  0.11252339     0.09700
H934        H  0.80740893  0.87859285  0.10535003     0.14200
H935        H  0.88692888  0.90502044  0.12118723     0.00000
H936        H  0.85405750  0.88380776  0.04473328     0.14500
H937        H  0.86668613  0.82513250  0.09701264     0.14300
C938        C  0.07971813  0.84527664  0.84986009     0.86100
C939        C  0.10027000  0.83332453  0.86794268    -0.54100
C940        C  0.11252486  0.85070156  0.88400205     0.09000
C941        C  0.10234197  0.87966097  0.88100956     0.20000
C942        C  0.06045574  0.85990182  0.86874598    -0.54900
C943        C  0.07227498  0.87793246  0.88529334     0.09100
C944        C  0.09360321  0.86803770  0.83562089    -0.54400
C945        C  0.10492077  0.88677505  0.85124183     0.09700
H946        H  0.10518420  0.81247867  0.86776097     0.14200
H947        H  0.11145778  0.89383924  0.89464417     0.00000
H948        H  0.03936157  0.85776358  0.86833097     0.14500
H949        H  0.09420608  0.86918449  0.81421144     0.14300
C950        C  0.85027670  0.09575292  0.83848759     0.86100
C951        C  0.86630566  0.11808757  0.82687881    -0.54100
C952        C  0.88369310  0.12912202  0.84392149     0.09000
C953        C  0.88320458  0.11670781  0.87225141     0.20000
C954        C  0.87087036  0.07627407  0.84992776    -0.54900
C955        C  0.88795692  0.08687607  0.86808212     0.09100
C956        C  0.83743373  0.10709766  0.86351719    -0.54400
C957        C  0.85419182  0.11811325  0.88153595     0.09700
H958        H  0.86449429  0.12437380  0.80642013     0.14200
H959        H  0.89727220  0.12529171  0.88639458     0.00000
H960        H  0.87109999  0.05555396  0.84532657     0.14500
H961        H  0.81635876  0.10612352  0.86687459     0.14300
Zn962      Zn  0.99284914  0.04605779  0.98987881     1.49700
Zn963      Zn  0.97593654  0.98616458  0.97636295     1.49400
Zn964      Zn  0.03545371  0.99918160  0.99450784     1.49100
Zn965      Zn  0.98935364  0.00447437  0.03592348     1.49500
O966        O  0.99841798  0.00883409  0.99882025    -1.84500
O967        O  0.96795575  0.04899931  0.95935665    -0.75100
O968        O  0.99796364  0.95895211  0.95678223    -0.75000
O969        O  0.05631904  0.03053227  0.98123414    -0.74500
O970        O  0.95710458  0.00820297  0.94825605    -0.75200
O971        O  0.02716824  0.06315709  0.97823419    -0.74800
O972        O  0.03894503  0.96999527  0.96748385    -0.75300
O973        O  0.01868419  0.98984207  0.05763912    -0.74700
O974        O  0.94912961  0.96636320  0.99913022    -0.75500
O975        O  0.05143839  0.98570310  0.02901932    -0.74900
O976        O  0.95921081  0.97969064  0.03985049    -0.75300
O977        O  0.97832235  0.03808020  0.05268660    -0.75300
O978        O  0.97584141  0.06658263  0.01979770    -0.75000
C979        C  0.95576393  0.03300866  0.94436997     0.76700
C980        C  0.02275463  0.95554338  0.95478406     0.77200
C981        C  0.05046798  0.05424018  0.97523591     0.76200
C982        C  0.04214695  0.98316263  0.05228961     0.76600
C983        C  0.94543282  0.96593818  0.02408171     0.77700
C984        C  0.97184535  0.06055966  0.04388363     0.76800
Zn985      Zn  0.26954056  0.27328954  0.97795124     1.49700
Zn986      Zn  0.25706536  0.33409029  0.99021305     1.49400
Zn987      Zn  0.21102520  0.29237251  0.99001835     1.49100
Zn988      Zn  0.25141529  0.29048289  0.03266608     1.49500
O989        O  0.24748812  0.29798776  0.99644573    -1.84500
O990        O  0.29431411  0.29316649  0.95264634    -0.75100
O991        O  0.22540931  0.35303543  0.97296406    -0.75000
O992        O  0.20602601  0.25506703  0.97679116    -0.74500
O993        O  0.28657262  0.33493240  0.96344341    -0.75200
O994        O  0.24596110  0.24647570  0.96030547    -0.74800
O995        O  0.19964616  0.31855797  0.96327748    -0.75300
O996        O  0.21929650  0.30105091  0.05379507    -0.74700
O997        O  0.27348456  0.34970996  0.02402293    -0.75500
O998        O  0.18928738  0.30159732  0.02206394    -0.74900
O999        O  0.28074698  0.31220916  0.04560840    -0.75300
O1000       O  0.26198269  0.25312319  0.03779198    -0.75300
O1001       O  0.29012169  0.25082390  0.00428360    -0.75000
C1002       C  0.29923479  0.31779763  0.95015232     0.76700
C1003       C  0.20584287  0.34273152  0.96068538     0.77200
C1004       C  0.22186481  0.24027244  0.96399751     0.76200
C1005       C  0.19584179  0.30545412  0.04603104     0.76600
C1006       C  0.28478427  0.33668357  0.04255228     0.77700
C1007       C  0.28157340  0.24236632  0.02643389     0.76800
Zn1008     Zn  0.78633545  0.49873949  0.71754864     1.49700
Zn1009     Zn  0.78477867  0.54298689  0.75832703     1.49400
Zn1010     Zn  0.76454163  0.48442278  0.77210229     1.49100
Zn1011     Zn  0.82579966  0.49697666  0.76439241     1.49500
O1012       O  0.79039767  0.50581034  0.75423677    -1.84500
O1013       O  0.79799917  0.53011098  0.69627653    -0.75100
O1014       O  0.74944502  0.54890590  0.77481644    -0.75000
O1015       O  0.74225777  0.46421647  0.74579455    -0.74500
O1016       O  0.79154190  0.56305682  0.72421911    -0.75200
O1017       O  0.74926580  0.48738697  0.70908665    -0.74800
O1018       O  0.73803556  0.50879746  0.78832887    -0.75300
O1019       O  0.82455012  0.46922651  0.79285245    -0.74700
O1020       O  0.81131584  0.55750166  0.78303301    -0.75500
O1021       O  0.78213592  0.46072291  0.80017261    -0.74900
O1022       O  0.84391431  0.52841481  0.78197113    -0.75300
O1023       O  0.84488793  0.48191057  0.73227784    -0.75300
O1024       O  0.81070975  0.46986320  0.70770674    -0.75000
C1025       C  0.79885136  0.55456746  0.70169577     0.76700
C1026       C  0.73370538  0.53347595  0.78690907     0.77200
C1027       C  0.73581800  0.47083005  0.72231313     0.76200
C1028       C  0.80652148  0.45733025  0.80565098     0.76600
C1029       C  0.83439147  0.55042100  0.78961214     0.77700
C1030       C  0.83520814  0.46909647  0.71277830     0.76800
Zn1031     Zn  0.98473467  0.24180524  0.76605912     1.49700
Zn1032     Zn  0.04175401  0.25640016  0.78682712     1.49400
Zn1033     Zn  0.99772938  0.29781236  0.78888263     1.49100
Zn1034     Zn  0.99553375  0.24943819  0.82832104     1.49500
O1035       O  0.00458123  0.26085868  0.79267097    -1.84500
O1036       O  0.00992160  0.22200862  0.74306388    -0.75100
O1037       O  0.06203467  0.29047016  0.79557088    -0.75000
O1038       O  0.98349547  0.30586416  0.75283075    -0.74500
O1039       O  0.04890600  0.24081113  0.75052617    -0.75200
O1040       O  0.96683744  0.26720428  0.74050463    -0.74800
O1041       O  0.02949299  0.31959363  0.79768786    -0.75300
O1042       O  0.97464787  0.27883238  0.84710714    -0.74700
O1043       O  0.05446086  0.22950162  0.81235242    -0.75500
O1044       O  0.97073301  0.30831973  0.81481753    -0.74900
O1045       O  0.02832913  0.23360666  0.84722306    -0.75300
O1046       O  0.96918184  0.21992948  0.82584570    -0.75300
O1047       O  0.95908721  0.21582821  0.78315289    -0.75000
C1048       C  0.03413065  0.22521022  0.73736775     0.76700
C1049       C  0.05371022  0.31377273  0.80024206     0.77200
C1050       C  0.97027357  0.29182621  0.73669671     0.76200
C1051       C  0.96432404  0.29980744  0.83750486     0.76600
C1052       C  0.04916211  0.22436710  0.83633083     0.77700
C1053       C  0.95603404  0.20920377  0.80731702     0.76800
C1054       C  0.84739594  0.35805300  0.92658169     0.86100
C1055       C  0.86440911  0.37830784  0.94143959    -0.54100
C1056       C  0.88027669  0.39366813  0.92572704     0.09000
C1057       C  0.87739801  0.38696242  0.89594903     0.20000
C1058       C  0.83235656  0.37439416  0.90564447    -0.54900
C1059       C  0.84765811  0.38971920  0.88972620     0.09100
C1060       C  0.86718918  0.34227211  0.90998556    -0.54400
C1061       C  0.88331271  0.35706201  0.89450535     0.09700
H1062       H  0.86438953  0.37978048  0.96283048     0.14200
H1063       H  0.88949522  0.39906143  0.88245075     0.00000
H1064       H  0.81140643  0.37344181  0.90243046     0.14500
H1065       H  0.86892577  0.32096148  0.91097814     0.14300
C1066       C  0.15589268  0.43068597  0.84081203     0.86100
C1067       C  0.13832116  0.40986684  0.82734802    -0.54100
C1068       C  0.12087265  0.39708948  0.84355973     0.09000
C1069       C  0.12245542  0.40709264  0.87260221     0.20000
C1070       C  0.13509003  0.44911247  0.85307685    -0.54900
C1071       C  0.11849854  0.43728458  0.87062279     0.09100
C1072       C  0.16864964  0.41643382  0.86419086    -0.54400
C1073       C  0.15172527  0.40357641  0.88061631     0.09700
H1074       H  0.13918608  0.40590425  0.80636638     0.14200
H1075       H  0.10823060  0.39754809  0.88613809     0.00000
H1076       H  0.13259367  0.46962572  0.84780865     0.14500
H1077       H  0.18986878  0.41571422  0.86695970     0.14300
C1078       C  0.92188754  0.66947769  0.84507891     0.86100
C1079       C  0.90207162  0.68404017  0.86314431    -0.54100
C1080       C  0.88686547  0.66786785  0.87858286     0.09000
C1081       C  0.89389074  0.63833874  0.87537689     0.20000
C1082       C  0.93801782  0.65369500  0.86556750    -0.54900
C1083       C  0.92377934  0.63685190  0.88108547     0.09100
C1084       C  0.90546469  0.64915628  0.83013885    -0.54400
C1085       C  0.89129006  0.63240836  0.84546794     0.09700
H1086       H  0.90088448  0.70530229  0.86471699     0.14200
H1087       H  0.88197253  0.62531284  0.88821031     0.00000
H1088       H  0.95898468  0.65626233  0.86825312     0.14500
H1089       H  0.90569532  0.64765392  0.80871459     0.14300
C1090       C  0.07937626  0.35332176  0.14656424     0.86100
C1091       C  0.06645656  0.37106332  0.12562300    -0.54100
C1092       C  0.08343587  0.38587169  0.11062213     0.09000
C1093       C  0.11235556  0.38206835  0.11943729     0.20000
C1094       C  0.10066671  0.33733238  0.13166522    -0.54900
C1095       C  0.11765359  0.35226807  0.11681600     0.09100
C1096       C  0.09595144  0.37194799  0.16340177    -0.54400
C1097       C  0.11236965  0.38771512  0.14968781     0.09700
H1098       H  0.04522693  0.37234391  0.12370290     0.14200
H1099       H  0.12665652  0.39313255  0.10776333     0.00000
H1100       H  0.10310415  0.31622553  0.13329083     0.14500
H1101       H  0.09425912  0.37338128  0.18476614     0.14300
C1102       C  0.85042246  0.59191162  0.15697093     0.86100
C1103       C  0.87107333  0.57309906  0.14459544    -0.54100
C1104       C  0.88852539  0.58497941  0.12777015     0.09000
C1105       C  0.88330173  0.61473426  0.12442379     0.20000
C1106       C  0.86616391  0.61394667  0.16948026    -0.54900
C1107       C  0.88341775  0.62608974  0.15317790     0.09100
C1108       C  0.83750674  0.60440480  0.13255409    -0.54400
C1109       C  0.85409207  0.61571019  0.11445009     0.09700
H1110       H  0.87073082  0.55193916  0.14661595     0.14200
H1111       H  0.89823427  0.62371529  0.11164374     0.00000
H1112       H  0.86383886  0.61957426  0.19006763     0.14500
H1113       H  0.81631755  0.60428413  0.13008964     0.14300
C1114       C  0.15953667  0.66464059  0.08761699     0.86100
C1115       C  0.17057167  0.64754951  0.10989231    -0.54100
C1116       C  0.15364975  0.62892089  0.11953781     0.09000
C1117       C  0.12583384  0.63067560  0.10679242     0.20000
C1118       C  0.14853403  0.64501720  0.06698419    -0.54900
C1119       C  0.13053008  0.62743164  0.07678230     0.09100
C1120       C  0.13438019  0.67699394  0.09872128    -0.54400
C1121       C  0.11736427  0.65968448  0.10975989     0.09700
H1122       H  0.19066981  0.64962503  0.11697159     0.14200
H1123       H  0.11107773  0.61666754  0.11452811     0.00000
H1124       H  0.15342551  0.64577648  0.04622066     0.14500
H1125       H  0.13027850  0.69798476  0.09843041     0.14300
Zn1126     Zn  0.04176236  0.50608961  0.99937035     1.49700
Zn1127     Zn  0.99392054  0.51001953  0.96123027     1.49400
Zn1128     Zn  0.98438488  0.49021699  0.02169856     1.49100
Zn1129     Zn  0.99875886  0.55114221  0.00901516     1.49500
O1130       O  0.00436740  0.51430041  0.99811715    -1.84500
O1131       O  0.05688435  0.49598508  0.96414642    -0.75100
O1132       O  0.96512318  0.48311266  0.95889408    -0.75000
O1133       O  0.00991031  0.46475568  0.04071027    -0.74500
O1134       O  0.02332023  0.49812068  0.93668980    -0.75200
O1135       O  0.04787342  0.47482968  0.02189502    -0.74800
O1136       O  0.95791368  0.46846367  0.99976946    -0.75300
O1137       O  0.97398358  0.55303488  0.04005988    -0.74700
O1138       O  0.97985785  0.54377037  0.94702555    -0.75500
O1139       O  0.96386301  0.51146558  0.04948854    -0.74900
O1140       O  0.98187448  0.57279355  0.97973248    -0.75300
O1141       O  0.03298819  0.56793716  0.02076740    -0.75300
O1142       O  0.06258129  0.53605379  0.01529675    -0.75000
C1143       C  0.04748530  0.49319018  0.94102175     0.76700
C1144       C  0.95305698  0.46806518  0.97496979     0.77200
C1145       C  0.03463350  0.46090905  0.03783920     0.76200
C1146       C  0.96168443  0.53615662  0.05396581     0.76600
C1147       C  0.97540535  0.56664760  0.95619350     0.77700
C1148       C  0.05644078  0.55921331  0.02276158     0.76800
Zn1149     Zn  0.49949080  0.71724410  0.28900214     1.49700
Zn1150     Zn  0.51525850  0.77298151  0.27099872     1.49400
Zn1151     Zn  0.45620070  0.75915152  0.28838420     1.49100
Zn1152     Zn  0.50162340  0.76232532  0.33204282     1.49500
O1153       O  0.49319948  0.75377811  0.29540465    -1.84500
O1154       O  0.51309211  0.71071247  0.25214841    -0.75100
O1155       O  0.49166440  0.79150789  0.24476673    -0.75000
O1156       O  0.43538220  0.72477941  0.29297453    -0.74500
O1157       O  0.53572823  0.74792698  0.24735763    -0.75200
O1158       O  0.46746481  0.69593666  0.29657175    -0.74800
O1159       O  0.45129754  0.77610529  0.25230105    -0.75300
O1160       O  0.46962809  0.77981878  0.35007767    -0.74700
O1161       O  0.53945212  0.79881084  0.29108718    -0.75500
O1162       O  0.44261359  0.78443230  0.31550308    -0.74900
O1163       O  0.52862609  0.79122975  0.33292015    -0.75300
O1164       O  0.52056834  0.73064590  0.34961174    -0.75300
O1165       O  0.52665710  0.70513661  0.31417334    -0.75000
C1166       C  0.52993728  0.72462761  0.23982898     0.76700
C1167       C  0.46740429  0.78953962  0.23839183     0.77200
C1168       C  0.44305761  0.70121453  0.29719370     0.76200
C1169       C  0.44898511  0.78965185  0.33929595     0.76600
C1170       C  0.54199322  0.80371717  0.31578559     0.77700
C1171       C  0.53176668  0.71120802  0.33798276     0.76800
Zn1172     Zn  0.51832460  0.27244522  0.73493752     1.49700
Zn1173     Zn  0.46007168  0.26173911  0.71254075     1.49400
Zn1174     Zn  0.50723433  0.26402662  0.67357630     1.49100
Zn1175     Zn  0.50112874  0.21922533  0.71516032     1.49500
O1176       O  0.49671276  0.25552371  0.70867794    -1.84500
O1177       O  0.49367271  0.28738213  0.76195882    -0.75100
O1178       O  0.44991879  0.28845953  0.68610033    -0.75000
O1179       O  0.53151524  0.29454762  0.67548842    -0.74500
O1180       O  0.45315557  0.27721380  0.74904340    -0.75200
O1181       O  0.54142706  0.30102496  0.71777476    -0.74800
O1182       O  0.47620316  0.27876054  0.65227610    -0.75300
O1183       O  0.53043213  0.20591822  0.69301323    -0.74700
O1184       O  0.43956632  0.22887883  0.70123003    -0.75500
O1185       O  0.52926458  0.23356210  0.65887226    -0.74900
O1186       O  0.47002016  0.19815988  0.70481065    -0.75300
O1187       O  0.50980439  0.21388505  0.75267899    -0.75300
O1188       O  0.53977699  0.24546392  0.75540818    -0.75000
C1189       C  0.46890454  0.28767173  0.76580782     0.76700
C1190       C  0.45654961  0.29117988  0.66204118     0.77200
C1191       C  0.54393273  0.30701018  0.69334195     0.76200
C1192       C  0.53840120  0.21293870  0.67027896     0.76600
C1193       C  0.44696022  0.20504065  0.69820711     0.77700
C1194       C  0.53012429  0.22370956  0.76346761     0.76800
Zn1195     Zn  0.71846437  0.97295906  0.74255155     1.49700
Zn1196     Zn  0.71583856  0.01535227  0.78497820     1.49400
Zn1197     Zn  0.73929452  0.03050371  0.73075106     1.49100
Zn1198     Zn  0.67758863  0.01805520  0.73523787     1.49500
O1199       O  0.71264217  0.00968614  0.74790861    -1.84500
O1200       O  0.70821834  0.95152221  0.77521767    -0.75100
O1201       O  0.75120794  0.03070484  0.79435197    -0.75000
O1202       O  0.76670363  0.00607138  0.71624868    -0.74500
O1203       O  0.70646625  0.98304100  0.80537752    -0.75200
O1204       O  0.75514111  0.96608552  0.72991125    -0.74800
O1205       O  0.75921896  0.05243110  0.75691921    -0.75300
O1206       O  0.68096050  0.04359678  0.70476369    -0.74700
O1207       O  0.68906772  0.04104935  0.79526016    -0.75500
O1208       O  0.72362481  0.05338099  0.70165513    -0.74900
O1209       O  0.65772173  0.03754692  0.76439230    -0.75300
O1210       O  0.65929163  0.98514147  0.72005542    -0.75300
O1211       O  0.69523660  0.96154385  0.71328754    -0.75000
C1212       C  0.70336758  0.95910016  0.79875302     0.76700
C1213       C  0.76439325  0.04740802  0.78101525     0.77200
C1214       C  0.77108511  0.98142576  0.71806281     0.76200
C1215       C  0.69986163  0.05601576  0.69384992     0.76600
C1216       C  0.66649981  0.04682538  0.78618942     0.77700
C1217       C  0.67092365  0.96557638  0.70925087     0.76800
C1218       C  0.34558000  0.08921227  0.66049969     0.86100
C1219       C  0.36287503  0.07132672  0.64272344    -0.54100
C1220       C  0.37837314  0.08444146  0.62491239     0.09000
C1221       C  0.37396051  0.11456058  0.62537165     0.20000
C1222       C  0.36455677  0.10954629  0.67235114    -0.54900
C1223       C  0.37905559  0.12328886  0.65429098     0.09100
C1224       C  0.32951911  0.10463073  0.63995512    -0.54400
C1225       C  0.34389578  0.11777564  0.62139957     0.09700
H1226       H  0.36176917  0.05008461  0.64229497     0.14200
H1227       H  0.38615759  0.12505533  0.61061010     0.00000
H1228       H  0.36567759  0.11349067  0.69341770     0.14500
H1229       H  0.30814110  0.10462499  0.63972627     0.14300
C1230       C  0.58329683  0.84873789  0.65657925     0.86100
C1231       C  0.56349057  0.86290759  0.63813304    -0.54100
C1232       C  0.57464081  0.87968914  0.62017250     0.09000
C1233       C  0.60496006  0.88094091  0.62236129     0.20000
C1234       C  0.60340115  0.83568890  0.63820577    -0.54900
C1235       C  0.61464059  0.85204551  0.61983381     0.09100
C1236       C  0.59817572  0.87198801  0.66905702    -0.54400
C1237       C  0.61024865  0.88835164  0.65149278     0.09700
H1238       H  0.54232576  0.86113350  0.64000109     0.14200
H1239       H  0.61354955  0.89486212  0.60792659     0.00000
H1240       H  0.60860479  0.81501954  0.63999558     0.14500
H1241       H  0.59949634  0.87526174  0.69021247     0.14300
C1242       C  0.65413464  0.16235702  0.58217820     0.86100
C1243       C  0.67227097  0.14437859  0.59864464    -0.54100
C1244       C  0.65933225  0.12633185  0.61381038     0.09000
C1245       C  0.62904442  0.12783238  0.61124462     0.20000
C1246       C  0.63607960  0.14358779  0.56650103    -0.54900
C1247       C  0.62326032  0.12484397  0.58139179     0.09100
C1248       C  0.63631432  0.17438420  0.60343513    -0.54400
C1249       C  0.62196772  0.15681985  0.61747000     0.09700
H1250       H  0.69355351  0.14637285  0.59918398     0.14200
H1251       H  0.61950218  0.11323466  0.62427504     0.00000
H1252       H  0.63330951  0.14557081  0.54531332     0.14500
H1253       H  0.63436099  0.19550350  0.60712931     0.14300
C1254       C  0.33917532  0.86067048  0.42716695     0.86100
C1255       C  0.35517043  0.88038357  0.44315836    -0.54100
C1256       C  0.37280186  0.89444856  0.42874567     0.09000
C1257       C  0.37212308  0.88829640  0.39849051     0.20000
C1258       C  0.32606434  0.87758922  0.40529726    -0.54900
C1259       C  0.34302376  0.89235294  0.39024228     0.09100
C1260       C  0.35967715  0.84450644  0.41186490    -0.54400
C1261       C  0.37660972  0.85823415  0.39611209     0.09700
H1262       H  0.35344148  0.88239662  0.46445905     0.14200
H1263       H  0.38571850  0.89994629  0.38635258     0.00000
H1264       H  0.30522772  0.87757755  0.40090226     0.14500
H1265       H  0.36055917  0.82319798  0.41346959     0.14300
C1266       C  0.64702505  0.92164982  0.34150602     0.86100
C1267       C  0.62922129  0.89958746  0.33096206    -0.54100
C1268       C  0.61458479  0.88673747  0.34969552     0.09000
C1269       C  0.61947184  0.89737091  0.37804708     0.20000
C1270       C  0.62828654  0.93967383  0.35744080    -0.54900
C1271       C  0.61376940  0.92721553  0.37641912     0.09100
C1272       C  0.66363265  0.90849495  0.36324573    -0.54400
C1273       C  0.64959748  0.89557172  0.38218476     0.09700
H1274       H  0.62826613  0.89456095  0.31014025     0.14200
H1275       H  0.60791857  0.88736023  0.39366686     0.00000
H1276       H  0.62749673  0.96075241  0.35573304     0.14500
H1277       H  0.68501631  0.90912642  0.36352932     0.14300
C1278       C  0.42175398  0.16874398  0.35289820     0.86100
C1279       C  0.39833152  0.18264690  0.36648719    -0.54100
C1280       C  0.38250585  0.16659596  0.38121050     0.09000
C1281       C  0.39044062  0.13726193  0.37910286     0.20000
C1282       C  0.43534113  0.15267362  0.37494924    -0.54900
C1283       C  0.41931835  0.13583985  0.38899865     0.09100
C1284       C  0.40813476  0.14819791  0.33570029    -0.54400
C1285       C  0.39217009  0.13143568  0.34888374     0.09700
H1286       H  0.39339073  0.20317873  0.36408657     0.14200
H1287       H  0.37660917  0.12506953  0.39027581     0.00000
H1288       H  0.45646197  0.15358658  0.37793477     0.14500
H1289       H  0.41103506  0.14677200  0.31446711     0.14300
Zn1290     Zn  0.49420777  0.04464351  0.51255396     1.49700
Zn1291     Zn  0.49129644  0.00329981  0.46590850     1.49400
Zn1292     Zn  0.53662012  0.99731224  0.50926557     1.49100
Zn1293     Zn  0.47689798  0.98529828  0.52642115     1.49500
O1294       O  0.49965953  0.00749441  0.50360973    -1.84500
O1295       O  0.47926155  0.06609421  0.48205163    -0.75100
O1296       O  0.52223190  0.98830687  0.44530202    -0.75000
O1297       O  0.55762505  0.02798345  0.52373289    -0.74500
O1298       O  0.47860149  0.03747207  0.44903047    -0.75200
O1299       O  0.52807861  0.06037854  0.52600005    -0.74800
O1300       O  0.55342248  0.98324284  0.47568887    -0.75300
O1301       O  0.49846351  0.95894920  0.54831408    -0.74700
O1302       O  0.46146337  0.97740839  0.46225261    -0.75500
O1303       O  0.53945537  0.96811798  0.53622669    -0.74900
O1304       O  0.45168348  0.96470064  0.50330159    -0.75300
O1305       O  0.45450963  0.00758907  0.55142513    -0.75300
O1306       O  0.46712476  0.04828393  0.54127656    -0.75000
C1307       C  0.47367305  0.06033814  0.45819865     0.76700
C1308       C  0.54524182  0.98071635  0.45199308     0.77200
C1309       C  0.55125377  0.05148146  0.52985993     0.76200
C1310       C  0.52319723  0.95470725  0.54983169     0.76600
C1311       C  0.44792100  0.96379160  0.47841059     0.77700
C1312       C  0.45281345  0.03246705  0.55444688     0.76800
C1313       C  0.42154817  0.09034175  0.41261995    -0.02200
C1314       C  0.43028538  0.11700406  0.40985962     0.07400
C1315       C  0.45171587  0.12517039  0.42612915    -0.02400
C1316       C  0.46656251  0.10668731  0.44087686    -0.02400
C1317       C  0.45925819  0.07990069  0.44139803     0.07600
C1318       C  0.43624183  0.07209120  0.42782432    -0.02600
Br1319     Br  0.42380978  0.03608947  0.43102350    -0.01100
Br1320     Br  0.38893763  0.07711657  0.39793337    -0.01200
Br1321     Br  0.49787060  0.11811966  0.45936159    -0.01100
Br1322     Br  0.45909489  0.16218594  0.43150939    -0.01100
C1323       C  0.60542087  0.96333264  0.41021138    -0.02200
C1324       C  0.59589738  0.94178128  0.39505895     0.07400
C1325       C  0.56936688  0.93390096  0.39826683    -0.02400
C1326       C  0.55286828  0.94682186  0.41654205    -0.02400
C1327       C  0.56254354  0.96787227  0.43199353     0.07600
C1328       C  0.58893367  0.97595469  0.42875523    -0.02600
Br1329     Br  0.60266395  0.00472804  0.44952122    -0.01100
Br1330     Br  0.64165836  0.97493143  0.40738947    -0.01200
Br1331     Br  0.51721452  0.93439533  0.42133695    -0.01100
Br1332     Br  0.55460639  0.90610327  0.37701815    -0.01100
C1333       C  0.38348451  0.93707876  0.45176414    -0.02200
C1334       C  0.39170914  0.91220995  0.44229986     0.07400
C1335       C  0.41694160  0.90282247  0.44927314    -0.02400
C1336       C  0.43521733  0.91974703  0.46138867    -0.02400
C1337       C  0.42798366  0.94569987  0.46769508     0.07600
C1338       C  0.40181665  0.95404835  0.46392688    -0.02600
Br1339     Br  0.39102459  0.98828044  0.47635173    -0.01100
Br1340     Br  0.34677018  0.94697752  0.45031108    -0.01200
Br1341     Br  0.46993222  0.90715467  0.47046351    -0.01100
Br1342     Br  0.42539593  0.86595862  0.44589890    -0.01100
C1343       C  0.58104788  0.09663518  0.58131610    -0.02200
C1344       C  0.60543094  0.10409872  0.56941936     0.07400
C1345       C  0.61279885  0.09133609  0.54545945    -0.02400
C1346       C  0.59512130  0.07433106  0.53234543    -0.02400
C1347       C  0.57054256  0.06850934  0.54356854     0.07600
C1348       C  0.56418887  0.07858425  0.56859661    -0.02600
Br1349     Br  0.53256677  0.06620608  0.58616497    -0.01100
Br1350     Br  0.56861569  0.11043546  0.61454522    -0.01200
Br1351     Br  0.60434161  0.05942865  0.49853844    -0.01100
Br1352     Br  0.64795809  0.09446569  0.53118557    -0.01100
C1353       C  0.53985050  0.91483194  0.61175555    -0.02200
C1354       C  0.55897138  0.89700554  0.60186153     0.07400
C1355       C  0.56411840  0.89678111  0.57441256    -0.02400
C1356       C  0.55166213  0.91497221  0.55741022    -0.02400
C1357       C  0.53374488  0.93367017  0.56750137     0.07600
C1358       C  0.52737169  0.93301954  0.59463315    -0.02600
Br1359     Br  0.50290058  0.95833072  0.60887176    -0.01100
Br1360     Br  0.53194190  0.91625572  0.64910919    -0.01200
Br1361     Br  0.55855863  0.91360667  0.51985278    -0.01100
Br1362     Br  0.58741705  0.87086705  0.55941825    -0.01100
C1363       C  0.39538478  0.07335527  0.57877676    -0.02200
C1364       C  0.39710911  0.07038983  0.60660869     0.07400
C1365       C  0.41699751  0.05364137  0.61703313    -0.02400
C1366       C  0.43475086  0.04053121  0.60004588    -0.02400
C1367       C  0.43288379  0.04382619  0.57251817     0.07600
C1368       C  0.41279810  0.05974812  0.56195676    -0.02600
Br1369     Br  0.40854950  0.06190314  0.52396402    -0.01100
Br1370     Br  0.36941757  0.09558564  0.56256994    -0.01200
Br1371     Br  0.46252290  0.01898212  0.61446963    -0.01100
Br1372     Br  0.42185803  0.05014881  0.65470151    -0.01100
C1373       C  0.68767911  0.11838566  0.65416116    -0.02200
C1374       C  0.67309019  0.10823576  0.63257819     0.07400
C1375       C  0.67105437  0.08067064  0.62944446    -0.02400
C1376       C  0.68160787  0.06359089  0.64867142    -0.02400
C1377       C  0.69355871  0.07384885  0.67156774     0.07600
C1378       C  0.69749280  0.10122975  0.67379890    -0.02600
Br1379     Br  0.71532080  0.11536300  0.70434331    -0.01100
Br1380     Br  0.69387679  0.15577421  0.65753482    -0.01200
Br1381     Br  0.68103599  0.02597575  0.64313830    -0.01100
Br1382     Br  0.65491302  0.06594163  0.59835604    -0.01100
C1383       C  0.65109648  0.90146565  0.67548046    -0.02200
C1384       C  0.62855180  0.90914218  0.66118066     0.07400
C1385       C  0.62183646  0.93600324  0.65989675    -0.02400
C1386       C  0.63552279  0.95462770  0.67545482    -0.02400
C1387       C  0.65650063  0.94646725  0.69209760     0.07600
C1388       C  0.66463040  0.91966146  0.69133705    -0.02600
Br1389     Br  0.69316395  0.90621110  0.71307993    -0.01100
Br1390     Br  0.66462324  0.86604168  0.67218213    -0.01200
Br1391     Br  0.62537042  0.99121951  0.67319662    -0.01100
Br1392     Br  0.59443676  0.94750067  0.63630092    -0.01100
C1393       C  0.42370475  0.14498182  0.65865334    -0.02200
C1394       C  0.39629902  0.14580649  0.66260495     0.07400
C1395       C  0.38540637  0.16767051  0.67603103    -0.02400
C1396       C  0.40165446  0.18666754  0.68812190    -0.02400
C1397       C  0.42930804  0.18502494  0.68561553     0.07600
C1398       C  0.44012511  0.16452557  0.66974681    -0.02600
Br1399     Br  0.47735468  0.16325033  0.66142609    -0.01100
Br1400     Br  0.43910899  0.11723935  0.63781399    -0.01200
Br1401     Br  0.38528791  0.21420717  0.70884862    -0.01100
Br1402     Br  0.34808815  0.17363394  0.67565073    -0.01100
C1403       C  0.55666856  0.19077553  0.62995310    -0.02200
C1404       C  0.55877900  0.19659813  0.65711060     0.07400
C1405       C  0.58030818  0.18628897  0.67175612    -0.02400
C1406       C  0.59944138  0.17055468  0.65924282    -0.02400
C1407       C  0.59833584  0.16645485  0.63183368     0.07600
C1408       C  0.57660537  0.17633749  0.61727723    -0.02600
Br1409     Br  0.57357690  0.17002455  0.57974751    -0.01100
Br1410     Br  0.52619487  0.20193827  0.60986441    -0.01200
Br1411     Br  0.62764234  0.15517706  0.67951551    -0.01100
Br1412     Br  0.58568251  0.19582275  0.70833743    -0.01100
C1413       C  0.57735436  0.82068760  0.34678855    -0.02200
C1414       C  0.56029352  0.82485350  0.32503423     0.07400
C1415       C  0.55946112  0.85000786  0.31327399    -0.02400
C1416       C  0.57668537  0.87014417  0.32166176    -0.02400
C1417       C  0.59507662  0.86557429  0.34232730     0.07600
C1418       C  0.59455674  0.84085095  0.35540722    -0.02600
Br1419     Br  0.61726398  0.83351940  0.38506204    -0.01100
Br1420     Br  0.57764459  0.78718168  0.36501861    -0.01200
Br1421     Br  0.57286291  0.90479741  0.30607570    -0.01100
Br1422     Br  0.53268960  0.85793659  0.28741406    -0.01100
C1423       C  0.42204572  0.85107463  0.37352118    -0.02200
C1424       C  0.39534363  0.84354778  0.37799018     0.07400
C1425       C  0.38673828  0.81926484  0.36692146    -0.02400
C1426       C  0.40491740  0.80087342  0.35727715    -0.02400
C1427       C  0.43145736  0.80769888  0.35417610     0.07600
C1428       C  0.43972990  0.83328131  0.36114650    -0.02600
Br1429     Br  0.47513998  0.84416819  0.35243261    -0.01100
Br1430     Br  0.43533602  0.88556295  0.38229023    -0.01200
Br1431     Br  0.39348842  0.76553128  0.34951916    -0.01100
Br1432     Br  0.34976261  0.81167737  0.36148288    -0.01100
C1433       C  0.08991051  0.56757112  0.05792324    -0.02200
C1434       C  0.07691251  0.57605498  0.03489051     0.07400
C1435       C  0.08320405  0.60071479  0.02391949    -0.02400
C1436       C  0.10118460  0.61757914  0.03686935    -0.02400
C1437       C  0.11449535  0.60893731  0.06011744     0.07600
C1438       C  0.10986232  0.58302710  0.06928420    -0.02600
Br1439     Br  0.13182210  0.56732741  0.09615504    -0.01100
Br1440     Br  0.07812721  0.53635567  0.07607831    -0.01200
Br1441     Br  0.10531106  0.65284172  0.02302137    -0.01100
Br1442     Br  0.06690884  0.61133671  0.99108188    -0.01100
C1443       C  0.89937139  0.55021957  0.09335127    -0.02200
C1444       C  0.90797541  0.57004944  0.11106463     0.07400
C1445       C  0.93510209  0.57644394  0.11165289    -0.02400
C1446       C  0.95290627  0.56433703  0.09397261    -0.02400
C1447       C  0.94383345  0.54593641  0.07516175     0.07600
C1448       C  0.91708676  0.53862204  0.07535551    -0.02600
Br1449     Br  0.90398914  0.51416397  0.04946262    -0.01100
Br1450     Br  0.86315051  0.53905970  0.09239108    -0.01200
Br1451     Br  0.99005709  0.57233259  0.09606265    -0.01100
Br1452     Br  0.94850047  0.60102464  0.13724991    -0.01100
C1453       C  0.05098976  0.39677440  0.07387787    -0.02200
C1454       C  0.07378601  0.40391084  0.08869036     0.07400
C1455       C  0.08601240  0.42847844  0.08245805    -0.02400
C1456       C  0.07447752  0.44548792  0.06364130    -0.02400
C1457       C  0.04883654  0.44050040  0.05372352     0.07600
C1458       C  0.03756298  0.41557666  0.05833238    -0.02600
Br1459     Br  0.00471797  0.40604125  0.04148164    -0.01100
Br1460     Br  0.03967793  0.36043422  0.07135147    -0.01200
Br1461     Br  0.09503677  0.47519824  0.05120854    -0.01100
Br1462     Br  0.11785886  0.44145973  0.09914632    -0.01100
C1463       C  0.95577885  0.62930144  0.91926614    -0.02200
C1464       C  0.93627846  0.61935215  0.90164806     0.07400
C1465       C  0.92866614  0.59257907  0.90414942    -0.02400
C1466       C  0.93988895  0.57649894  0.92373782    -0.02400
C1467       C  0.96122980  0.58564057  0.93901226     0.07600
C1468       C  0.96900719  0.61221640  0.93689734    -0.02600
Br1469     Br  0.99842567  0.62522675  0.95730598    -0.01100
Br1470     Br  0.96316741  0.66663680  0.92158391    -0.01200
Br1471     Br  0.92464222  0.54209817  0.93062590    -0.01100
Br1472     Br  0.90460828  0.57587233  0.88003631    -0.01100
C1473       C  0.07260051  0.45230877  0.88257349    -0.02200
C1474       C  0.09993614  0.45304773  0.88720839     0.07400
C1475       C  0.10986945  0.47036481  0.90667262    -0.02400
C1476       C  0.09266309  0.48584940  0.92193140    -0.02400
C1477       C  0.06505673  0.48268582  0.91964461     0.07600
C1478       C  0.05516867  0.46706230  0.89854263    -0.02600
Br1479     Br  0.01806431  0.46592519  0.89024730    -0.01100
Br1480     Br  0.05896188  0.43128094  0.85401660    -0.01200
Br1481     Br  0.10742101  0.51309743  0.94427738    -0.01100
Br1482     Br  0.14706183  0.47174791  0.91433876    -0.01100
C1483       C  0.92566038  0.41557819  0.92962030    -0.02200
C1484       C  0.89874366  0.41401949  0.93722883     0.07400
C1485       C  0.88965208  0.43162340  0.95708691    -0.02400
C1486       C  0.90730562  0.44900915  0.96984820    -0.02400
C1487       C  0.93428171  0.44869315  0.96360458     0.07600
C1488       C  0.94335452  0.43148487  0.94390117    -0.02600
Br1489     Br  0.98080701  0.42859919  0.93754104    -0.01100
Br1490     Br  0.93961595  0.39837345  0.89878595    -0.01200
Br1491     Br  0.89422821  0.47424360  0.99483521    -0.01100
Br1492     Br  0.85244774  0.43467867  0.96486566    -0.01100
C1493       C  0.08485221  0.33073321  0.83480671    -0.02200
C1494       C  0.07189781  0.33441586  0.81044298     0.07400
C1495       C  0.07369177  0.35901309  0.79772234    -0.02400
C1496       C  0.08854631  0.37971012  0.80901263    -0.02400
C1497       C  0.10260280  0.37589505  0.83312789     0.07600
C1498       C  0.10017948  0.35112141  0.84602643    -0.02600
Br1499     Br  0.11767022  0.34374171  0.87897859    -0.01100
Br1500     Br  0.08016540  0.29800780  0.85383948    -0.01200
Br1501     Br  0.08746298  0.41371042  0.79169260    -0.01100
Br1502     Br  0.05597223  0.36412850  0.76426513    -0.01100
C1503       C  0.94697772  0.31994383  0.87953555    -0.02200
C1504       C  0.94398828  0.31478488  0.85233564     0.07400
C1505       C  0.92181133  0.32516113  0.83880083    -0.02400
C1506       C  0.90345118  0.34104605  0.85218134    -0.02400
C1507       C  0.90536211  0.34453655  0.87966323     0.07600
C1508       C  0.92722417  0.33374112  0.89332761    -0.02600
Br1509     Br  0.93123419  0.33888741  0.93084044    -0.01100
Br1510     Br  0.97891604  0.30982585  0.89770604    -0.01200
Br1511     Br  0.87569709  0.35794461  0.83260564    -0.01100
Br1512     Br  0.91495329  0.31616510  0.80227789    -0.01100
C1513       C  0.80821662  0.41325787  0.82890222    -0.02200
C1514       C  0.81476072  0.44019733  0.82808605     0.07400
C1515       C  0.83092253  0.45081172  0.84809199    -0.02400
C1516       C  0.84189324  0.43442563  0.86776438    -0.02400
C1517       C  0.83613123  0.40710706  0.86839161     0.07600
C1518       C  0.81844408  0.39683121  0.84909564    -0.02600
Br1519     Br  0.80859425  0.36002202  0.84900182    -0.01100
Br1520     Br  0.78621942  0.39859555  0.80145822    -0.01200
Br1521     Br  0.86373724  0.45055587  0.89431402    -0.01100
Br1522     Br  0.83685223  0.48848721  0.84935537    -0.01100
C1523       C  0.89059245  0.59274632  0.81531391    -0.02200
C1524       C  0.87724134  0.60938770  0.83343542     0.07400
C1525       C  0.85065111  0.60401687  0.83935708    -0.02400
C1526       C  0.83755687  0.58301056  0.82674961    -0.02400
C1527       C  0.85003964  0.56873886  0.80625873     0.07600
C1528       C  0.87677526  0.57360769  0.80077393    -0.02600
Br1529     Br  0.89445429  0.55565940  0.77213640    -0.01100
Br1530     Br  0.92835447  0.59397330  0.81174634    -0.01200
Br1531     Br  0.80271875  0.57318463  0.83858681    -0.01100
Br1532     Br  0.83122872  0.62593707  0.86352971    -0.01100
C1533       C  0.16444389  0.35001788  0.09783496    -0.02200
C1534       C  0.13812758  0.34050657  0.09865279     0.07400
C1535       C  0.13099672  0.32007112  0.08089852    -0.02400
C1536       C  0.15009479  0.30749660  0.06511216    -0.02400
C1537       C  0.17622374  0.31678224  0.06469246     0.07600
C1538       C  0.18293960  0.33883093  0.08031142    -0.02600
Br1539     Br  0.21668209  0.35589289  0.07559795    -0.01100
Br1540     Br  0.17637892  0.37854304  0.11992028    -0.01200
Br1541     Br  0.14020268  0.27726521  0.04410778    -0.01100
Br1542     Br  0.09456685  0.31141673  0.07479210    -0.01100
C1543       C  0.17100075  0.37582236  0.94842460    -0.02200
C1544       C  0.19106086  0.35818024  0.94099113     0.07400
C1545       C  0.19516353  0.35259149  0.91417043    -0.02400
C1546       C  0.18081156  0.36608332  0.89473675    -0.02400
C1547       C  0.16236932  0.38579784  0.90178390     0.07600
C1548       C  0.15634833  0.38935729  0.92885333    -0.02600
Br1549     Br  0.12744366  0.41131855  0.93954057    -0.01100
Br1550     Br  0.16314340  0.38053977  0.98539673    -0.01200
Br1551     Br  0.18479310  0.35511743  0.85858853    -0.01100
Br1552     Br  0.22048806  0.32594660  0.90403251    -0.01100
C1553       C  0.89549729  0.17665089  0.83651852    -0.02200
C1554       C  0.90203620  0.14976541  0.83412588     0.07400
C1555       C  0.92386038  0.14261687  0.81835522    -0.02400
C1556       C  0.94141473  0.16207241  0.80921764    -0.02400
C1557       C  0.93653564  0.18883659  0.81457912     0.07600
C1558       C  0.91320251  0.19612999  0.82770962    -0.02600
Br1559     Br  0.90511594  0.23293128  0.83272598    -0.01100
Br1560     Br  0.86060003  0.18671734  0.84758604    -0.01200
Br1561     Br  0.97245119  0.15200765  0.78990748    -0.01100
Br1562     Br  0.92844374  0.10651509  0.80705432    -0.01100
C1563       C  0.91470229  0.03382889  0.91590441    -0.02200
C1564       C  0.93976868  0.04409358  0.92219165     0.07400
C1565       C  0.94898674  0.06640307  0.90829823    -0.02400
C1566       C  0.93255441  0.07970192  0.89017154    -0.02400
C1567       C  0.90657042  0.07069202  0.88501687     0.07600
C1568       C  0.89820371  0.04691824  0.89754872    -0.02600
Br1569     Br  0.86357704  0.03208743  0.89190898    -0.01100
Br1570     Br  0.90187528  0.00251029  0.93359910    -0.01200
Br1571     Br  0.94705914  0.10994158  0.87234226    -0.01100
Br1572     Br  0.98496667  0.07842079  0.91308595    -0.01100
C1573       C  0.81163483  0.04848849  0.79340104    -0.02200
C1574       C  0.78684771  0.06075605  0.79334304     0.07400
C1575       C  0.78437425  0.08681819  0.80217497    -0.02400
C1576       C  0.80597871  0.09940430  0.81414745    -0.02400
C1577       C  0.82979193  0.08521007  0.81871226     0.07600
C1578       C  0.83346434  0.06139162  0.80456883    -0.02600
Br1579     Br  0.86809183  0.05014525  0.79352633    -0.01100
Br1580     Br  0.81578470  0.01434539  0.77714411    -0.01200
Br1581     Br  0.80304238  0.13665758  0.82190497    -0.01100
Br1582     Br  0.75121946  0.10505152  0.79797519    -0.01100
C1583       C  0.06568836  0.89920198  0.93045769    -0.02200
C1584       C  0.05755823  0.89622720  0.90374254     0.07400
C1585       C  0.03627376  0.91206495  0.89459820    -0.02400
C1586       C  0.02465719  0.93120273  0.91125203    -0.02400
C1587       C  0.03332391  0.93421143  0.93758052     0.07600
C1588       C  0.05313730  0.91738854  0.94731473    -0.02600
Br1589     Br  0.06224007  0.91828324  0.98451317    -0.01100
Br1590     Br  0.09392725  0.87867731  0.94520502    -0.01200
Br1591     Br  0.99794301  0.95457382  0.89727193    -0.01100
Br1592     Br  0.02329017  0.90936116  0.85889220    -0.01100
C1593       C  0.93224141  0.92126261  0.03902652    -0.02200
C1594       C  0.92585635  0.94800684  0.03578900     0.07400
C1595       C  0.90268188  0.95808778  0.04713122    -0.02400
C1596       C  0.88662199  0.94179051  0.06285115    -0.02400
C1597       C  0.89270299  0.91487026  0.06586366     0.07600
C1598       C  0.91543064  0.90457667  0.05343099    -0.02600
Br1599     Br  0.92434354  0.86778744  0.05631307    -0.01100
Br1600     Br  0.96462662  0.90775992  0.02432151    -0.01200
Br1601     Br  0.85656841  0.95656587  0.08043348    -0.01100
Br1602     Br  0.89226151  0.99383626  0.03976954    -0.01100
C1603       C  0.95074503  0.12377970  0.07892310    -0.02200
C1604       C  0.93216198  0.11400248  0.09750308     0.07400
C1605       C  0.92600742  0.08681881  0.09721557    -0.02400
C1606       C  0.93949101  0.06953917  0.08026395    -0.02400
C1607       C  0.95824806  0.07923026  0.06199976     0.07600
C1608       C  0.96333834  0.10656097  0.06107362    -0.02600
Br1609     Br  0.98846569  0.12073237  0.03616614    -0.01100
Br1610     Br  0.95820167  0.16114634  0.07624660    -0.01200
Br1611     Br  0.93135013  0.03229178  0.08242820    -0.01100
Br1612     Br  0.89934823  0.07190929  0.11980143    -0.01100
C1613       C  0.06608898  0.94094369  0.10969323    -0.02200
C1614       C  0.09166046  0.95127535  0.11437945     0.07400
C1615       C  0.09935445  0.97420576  0.09997384    -0.02400
C1616       C  0.08322155  0.98428763  0.07959909    -0.02400
C1617       C  0.05887847  0.97247507  0.07381168     0.07600
C1618       C  0.04995756  0.95135079  0.08949946    -0.02600
Br1619     Br  0.01594641  0.93558522  0.08248890    -0.01100
Br1620     Br  0.05171539  0.91344431  0.13163885    -0.01200
Br1621     Br  0.09409519  0.01514253  0.05987401    -0.01100
Br1622     Br  0.13145146  0.99318452  0.10708117    -0.01100
C1623       C  0.09561943  0.20986147  0.84591421    -0.02200
C1624       C  0.06831344  0.20745343  0.85113687     0.07400
C1625       C  0.05979254  0.18741874  0.86857099    -0.02400
C1626       C  0.07834062  0.17103149  0.88156854    -0.02400
C1627       C  0.10560865  0.17344217  0.87627444     0.07600
C1628       C  0.11379915  0.19244461  0.85756726    -0.02600
Br1629     Br  0.14987319  0.19383499  0.84591424    -0.01100
Br1630     Br  0.10914643  0.23768093  0.82341621    -0.01200
Br1631     Br  0.06580550  0.14603245  0.90713623    -0.01100
Br1632     Br  0.02262108  0.18102174  0.87353380    -0.01100
C1633       C  0.10356345  0.07847692  0.92818831    -0.02200
C1634       C  0.10857570  0.10434204  0.93752439     0.07400
C1635       C  0.09448792  0.11334529  0.96006061    -0.02400
C1636       C  0.07605208  0.09679170  0.97279564    -0.02400
C1637       C  0.07093007  0.07130498  0.96302491     0.07600
C1638       C  0.08472979  0.06229423  0.94063596    -0.02600
Br1639     Br  0.07682990  0.02797606  0.92586531    -0.01100
Br1640     Br  0.12277155  0.06383891  0.89893591    -0.01200
Br1641     Br  0.05830724  0.10879485  0.00428694    -0.01100
Br1642     Br  0.09836029  0.14907419  0.97279053    -0.01100
C1643       C  0.19285446  0.17143285  0.95909226    -0.02200
C1644       C  0.18776226  0.16981049  0.93151881     0.07400
C1645       C  0.20164039  0.18790114  0.91499722    -0.02400
C1646       C  0.21300989  0.21077432  0.92570662    -0.02400
C1647       C  0.21204519  0.21519879  0.95301940     0.07600
C1648       C  0.20351708  0.19481101  0.96983123    -0.02600
Br1649     Br  0.20812163  0.19835405  0.00755580    -0.01100
Br1650     Br  0.19372053  0.14035410  0.98104014    -0.01200
Br1651     Br  0.22878785  0.23681547  0.90270977    -0.01100
Br1652     Br  0.20715786  0.18153011  0.87783819    -0.01100
C1653       C  0.28758722  0.07839553  0.70902562    -0.02200
C1654       C  0.28726124  0.05094096  0.71095253     0.07400
C1655       C  0.30905778  0.03646309  0.70209743    -0.02400
C1656       C  0.33022031  0.04934826  0.68954588    -0.02400
C1657       C  0.32764384  0.07615414  0.68162594     0.07600
C1658       C  0.30700464  0.09096414  0.69380691    -0.02600
Br1659     Br  0.30383591  0.12854173  0.69045307    -0.01100
Br1660     Br  0.26098408  0.09874207  0.72709738    -0.01200
Br1661     Br  0.36386084  0.03174505  0.69066835    -0.01100
Br1662     Br  0.31052152  0.99914020  0.70871126    -0.01100
C1663       C  0.16411049  0.08766379  0.81678963    -0.02200
C1664       C  0.18314281  0.06811796  0.82231191     0.07400
C1665       C  0.19210507  0.06481524  0.84847227    -0.02400
C1666       C  0.18251648  0.08114893  0.86883792    -0.02400
C1667       C  0.16378657  0.10119850  0.86328229     0.07600
C1668       C  0.15410129  0.10371439  0.83717995    -0.02600
Br1669     Br  0.12725091  0.12905920  0.82852412    -0.01100
Br1670     Br  0.15267359  0.09357771  0.78075400    -0.01200
Br1671     Br  0.19371102  0.07423092  0.90479328    -0.01100
Br1672     Br  0.21650348  0.03690860  0.85687053    -0.01100
C1673       C  0.14084282  0.92239527  0.84650872    -0.02200
C1674       C  0.11637416  0.91135759  0.83862286     0.07400
C1675       C  0.10432530  0.92174929  0.81532133    -0.02400
C1676       C  0.11861706  0.93775065  0.79773489    -0.02400
C1677       C  0.14461581  0.94492651  0.80373029     0.07600
C1678       C  0.15513363  0.93840254  0.82872700    -0.02600
Br1679     Br  0.18906290  0.95222047  0.83896747    -0.01100
Br1680     Br  0.15467636  0.91846524  0.88180769    -0.01200
Br1681     Br  0.10299828  0.94841911  0.76451128    -0.01100
Br1682     Br  0.06750622  0.91595609  0.80756922    -0.01100
C1683       C  0.82956910  0.29736018  0.96833183    -0.02200
C1684       C  0.80267742  0.29460512  0.96206238     0.07400
C1685       C  0.78930490  0.31583151  0.95022703    -0.02400
C1686       C  0.80297814  0.33915209  0.94395718    -0.02400
C1687       C  0.83090696  0.33959107  0.94455447     0.07600
C1688       C  0.84357048  0.31979196  0.95988526    -0.02600
Br1689     Br  0.87954781  0.32364768  0.97127845    -0.01100
Br1690     Br  0.84766101  0.26973037  0.98747035    -0.01200
Br1691     Br  0.78313272  0.37159468  0.94493983    -0.01100
Br1692     Br  0.75189615  0.31369113  0.94389420    -0.01100
C1693       C  0.82203178  0.20049120  0.09583784    -0.02200
C1694       C  0.82226267  0.19430073  0.06869843     0.07400
C1695       C  0.84280845  0.17862771  0.05854425    -0.02400
C1696       C  0.86248484  0.16854644  0.07538228    -0.02400
C1697       C  0.86207843  0.17396284  0.10279645     0.07600
C1698       C  0.84172807  0.19030558  0.11285925    -0.02600
Br1699     Br  0.83958393  0.19769046  0.15024264    -0.01100
Br1700     Br  0.79408689  0.22202426  0.10988179    -0.01200
Br1701     Br  0.89042418  0.14838754  0.05979859    -0.01100
Br1702     Br  0.84472048  0.17182583  0.02091197    -0.01100
C1703       C  0.80562607  0.12815315  0.93751430    -0.02200
C1704       C  0.81028827  0.15466258  0.94403650     0.07400
C1705       C  0.83381548  0.16676716  0.93532153    -0.02400
C1706       C  0.85069505  0.15369907  0.91744263    -0.02400
C1707       C  0.84365667  0.12858951  0.90742701     0.07600
C1708       C  0.82274865  0.11495752  0.92012571    -0.02600
Br1709     Br  0.81798418  0.07761481  0.91504722    -0.01100
Br1710     Br  0.77453465  0.11033251  0.95028589    -0.01200
Br1711     Br  0.88357566  0.17044250  0.90861087    -0.01100
Br1712     Br  0.84317785  0.20145308  0.94812351    -0.01100
C1713       C  0.06536868  0.85725624  0.19283020    -0.02200
C1714       C  0.06971575  0.83092465  0.18511719     0.07400
C1715       C  0.09188721  0.82497366  0.16938155    -0.02400
C1716       C  0.10883303  0.84529337  0.16065690    -0.02400
C1717       C  0.10258280  0.87189856  0.16569196     0.07600
C1718       C  0.08179554  0.87760933  0.18332462    -0.02600
Br1719     Br  0.07660887  0.91315467  0.19578936    -0.01100
Br1720     Br  0.03629114  0.86564193  0.21572984    -0.01200
Br1721     Br  0.14238338  0.83652430  0.14518848    -0.01100
Br1722     Br  0.09960641  0.78881911  0.16060091    -0.01100
C1723       C  0.91748950  0.64163884  0.18612538    -0.02200
C1724       C  0.90098920  0.64709403  0.16410473     0.07400
C1725       C  0.89873075  0.67334215  0.15533050    -0.02400
C1726       C  0.91566447  0.69292686  0.16533162    -0.02400
C1727       C  0.93185488  0.68763977  0.18739529     0.07600
C1728       C  0.93213418  0.66198324  0.19813830    -0.02600
Br1729     Br  0.95193685  0.65479336  0.23001914    -0.01100
Br1730     Br  0.91972538  0.60648975  0.20084201    -0.01200
Br1731     Br  0.91852086  0.72583954  0.14666770    -0.01100
Br1732     Br  0.86934199  0.68385190  0.13374732    -0.01100
C1733       C  0.92731952  0.85583348  0.13047347    -0.02200
C1734       C  0.90024355  0.84919398  0.13054054     0.07400
C1735       C  0.89181135  0.82776138  0.14633450    -0.02400
C1736       C  0.91021502  0.81107119  0.15841813    -0.02400
C1737       C  0.93748429  0.81540282  0.15485626     0.07600
C1738       C  0.94595350  0.83835956  0.14164024    -0.02600
Br1739     Br  0.98302836  0.84676765  0.14028317    -0.01100
Br1740     Br  0.93924966  0.88963248  0.11804664    -0.01200
Br1741     Br  0.89725142  0.78218049  0.17977892    -0.01100
Br1742     Br  0.85472792  0.82222435  0.15355257    -0.01100
C1743       C  0.07027561  0.67401562  0.11314546    -0.02200
C1744       C  0.09495844  0.66992262  0.12528144     0.07400
C1745       C  0.10031075  0.68151965  0.15003123    -0.02400
C1746       C  0.08165789  0.69794004  0.16197815    -0.02400
C1747       C  0.05732301  0.70287198  0.14938137     0.07600
C1748       C  0.05145766  0.69054673  0.12513949    -0.02600
Br1749     Br  0.01760238  0.69591057  0.10864829    -0.01100
Br1750     Br  0.06245923  0.65750943  0.07986466    -0.01200
Br1751     Br  0.09044336  0.71505187  0.19506093    -0.01100
Br1752     Br  0.13375483  0.67603377  0.16743772    -0.01100
C1753       C  0.68456917  0.15118947  0.10440174    -0.02200
C1754       C  0.66256147  0.13546274  0.09714568     0.07400
C1755       C  0.65438708  0.13564475  0.07020474    -0.02400
C1756       C  0.67012935  0.14802867  0.05087336    -0.02400
C1757       C  0.69352082  0.16084851  0.05816406     0.07600
C1758       C  0.70013286  0.16336200  0.08496517    -0.02600
Br1759     Br  0.73040338  0.18417462  0.09496503    -0.01100
Br1760     Br  0.69253753  0.15841476  0.14102921    -0.01200
Br1761     Br  0.65988477  0.14766248  0.01404898    -0.01100
Br1762     Br  0.62158412  0.12051901  0.05855039    -0.01100
C1763       C  0.55484000  0.05083978  0.09329414    -0.02200
C1764       C  0.56396117  0.04211844  0.06855100     0.07400
C1765       C  0.59078792  0.04464276  0.06216978    -0.02400
C1766       C  0.60799731  0.05780723  0.07957013    -0.02400
C1767       C  0.59832320  0.06887732  0.10329571     0.07600
C1768       C  0.57234910  0.06296776  0.11117189    -0.02600
Br1769     Br  0.56190954  0.06782305  0.14749467    -0.01100
Br1770     Br  0.51847882  0.04554533  0.10281239    -0.01200
Br1771     Br  0.64509677  0.05869299  0.07158825    -0.01100
Br1772     Br  0.60380271  0.03029040  0.02936442    -0.01100
C1773       C  0.64505151  0.11275966  0.81081715    -0.02200
C1774       C  0.63070994  0.10603495  0.83395624     0.07400
C1775       C  0.62891555  0.07920750  0.84146640    -0.02400
C1776       C  0.63936310  0.05950898  0.82492718    -0.02400
C1777       C  0.65151370  0.06643217  0.80099200     0.07600
C1778       C  0.65457461  0.09298094  0.79409664    -0.02600
Br1779     Br  0.67261067  0.10214659  0.76180143    -0.01100
Br1780     Br  0.65345207  0.14906807  0.80237446    -0.01200
Br1781     Br  0.63693177  0.02278336  0.83466796    -0.01100
Br1782     Br  0.61280909  0.06858615  0.87415691    -0.01100
C1783       C  0.63526621  0.19528491  0.91295655    -0.02200
C1784       C  0.64089238  0.17447236  0.89520967     0.07400
C1785       C  0.66728847  0.16550090  0.89338139    -0.02400
C1786       C  0.68733051  0.17670145  0.90929384    -0.02400
C1787       C  0.68161364  0.19778706  0.92654024     0.07600
C1788       C  0.65553298  0.20734719  0.92775449    -0.02600
Br1789     Br  0.64749181  0.23778139  0.94917764    -0.01100
Br1790     Br  0.59941688  0.20606963  0.91926370    -0.01200
Br1791     Br  0.72237045  0.16177461  0.90862566    -0.01100
Br1792     Br  0.67694967  0.13821560  0.86893788    -0.01100
C1793       C  0.53555644  0.07825208  0.90790373    -0.02200
C1794       C  0.54077621  0.07820359  0.93530439     0.07400
C1795       C  0.56078916  0.09502561  0.94526470    -0.02400
C1796       C  0.57427684  0.11251711  0.92820048    -0.02400
C1797       C  0.56908687  0.11236378  0.90080628     0.07600
C1798       C  0.55045160  0.09417178  0.89081158    -0.02600
Br1799     Br  0.54703135  0.08831309  0.85346243    -0.01100
Br1800     Br  0.50714362  0.05737424  0.89326332    -0.01200
Br1801     Br  0.59966674  0.13678402  0.94263083    -0.01100
Br1802     Br  0.57135307  0.09314469  0.98192667    -0.01100
C1803       C  0.54488206  0.18132645  0.78270456    -0.02200
C1804       C  0.54255174  0.20882907  0.78512731     0.07400
C1805       C  0.54883606  0.22103973  0.80931504    -0.02400
C1806       C  0.55923907  0.20598478  0.83034123    -0.02400
C1807       C  0.56507247  0.17889240  0.82672296     0.07600
C1808       C  0.55421611  0.16636607  0.80394737    -0.02600
Br1809     Br  0.54848622  0.12880583  0.80175786    -0.01100
Br1810     Br  0.53626573  0.16354690  0.74979069    -0.01200
Br1811     Br  0.55908340  0.22136949  0.86509808    -0.01100
Br1812     Br  0.54147512  0.25805497  0.81434449    -0.01100
C1813       C  0.40597488  0.11509693  0.03734052    -0.02200
C1814       C  0.39088603  0.10661887  0.05944538     0.07400
C1815       C  0.39254061  0.07991525  0.06715363    -0.02400
C1816       C  0.41017936  0.06254232  0.05451008    -0.02400
C1817       C  0.42644165  0.07137394  0.03366729     0.07600
C1818       C  0.42359029  0.09756491  0.02467487    -0.02600
Br1819     Br  0.44292552  0.10915346  0.99393999    -0.01100
Br1820     Br  0.40392071  0.15096938  0.02444582    -0.01200
Br1821     Br  0.41224310  0.02664834  0.06670189    -0.01100
Br1822     Br  0.36943541  0.06609395  0.09396955    -0.01100
C1823       C  0.30097879  0.22279888  0.06703139    -0.02200
C1824       C  0.29480072  0.22026081  0.04004778     0.07400
C1825       C  0.29835257  0.19573209  0.02752010    -0.02400
C1826       C  0.30931694  0.17437183  0.04167410    -0.02400
C1827       C  0.31939164  0.17825955  0.06760270     0.07600
C1828       C  0.31140188  0.20139749  0.08104040    -0.02600
Br1829     Br  0.31142504  0.20334120  0.11901296    -0.01100
Br1830     Br  0.29735226  0.25632547  0.08476127    -0.01200
Br1831     Br  0.30259387  0.13928314  0.02848931    -0.01100
Br1832     Br  0.28717600  0.19094415  0.99134575    -0.01100
C1833       C  0.45203228  0.89179631  0.07575772    -0.02200
C1834       C  0.43749359  0.90173511  0.09754486     0.07400
C1835       C  0.43721341  0.92931909  0.10180406    -0.02400
C1836       C  0.45196696  0.94624840  0.08550840    -0.02400
C1837       C  0.46496569  0.93653419  0.06309042     0.07600
C1838       C  0.46518045  0.90920801  0.05833916    -0.02600
Br1839     Br  0.48321712  0.89578242  0.02771127    -0.01100
Br1840     Br  0.45279760  0.85444217  0.06848996    -0.01200
Br1841     Br  0.45658261  0.98272085  0.09517275    -0.01100
Br1842     Br  0.41695107  0.94504818  0.12960072    -0.01100
C1843       C  0.44295701  0.78978257  0.19485663    -0.02200
C1844       C  0.45806765  0.80318914  0.21406425     0.07400
C1845       C  0.46654537  0.82903151  0.20864520    -0.02400
C1846       C  0.45861894  0.84184957  0.18532432    -0.02400
C1847       C  0.43991479  0.83003938  0.16796526     0.07600
C1848       C  0.43542421  0.80256881  0.17116295    -0.02600
Br1849     Br  0.42722869  0.78024558  0.14140069    -0.01100
Br1850     Br  0.43311073  0.75343729  0.20034227    -0.01200
Br1851     Br  0.47541782  0.87501481  0.17715675    -0.01100
Br1852     Br  0.48710800  0.84836307  0.23429118    -0.01100
C1853       C  0.66049113  0.90684284  0.83187022    -0.02200
C1854       C  0.66836678  0.90919771  0.85853963     0.07400
C1855       C  0.68847012  0.92735270  0.86519629    -0.02400
C1856       C  0.70112514  0.94212714  0.84537728    -0.02400
C1857       C  0.69268429  0.94043559  0.81879542     0.07600
C1858       C  0.67200267  0.92289483  0.81224318    -0.02600
Br1859     Br  0.65787575  0.92176580  0.77677337    -0.01100
Br1860     Br  0.63474653  0.88085768  0.82161403    -0.01200
Br1861     Br  0.73101678  0.96379065  0.85485399    -0.01100
Br1862     Br  0.69810547  0.93330508  0.90174271    -0.01100
C1863       C  0.59035920  0.90237396  0.94892560    -0.02200
C1864       C  0.60823023  0.91298377  0.93030208     0.07400
C1865       C  0.60728835  0.94019791  0.92474791    -0.02400
C1866       C  0.58963695  0.95670182  0.93854773    -0.02400
C1867       C  0.57290503  0.94621278  0.95830758     0.07600
C1868       C  0.57360216  0.91896341  0.96356566    -0.02600
Br1869     Br  0.55037570  0.90382223  0.98965532    -0.01100
Br1870     Br  0.58560780  0.86475134  0.95154147    -0.01200
Br1871     Br  0.58906608  0.99400211  0.93071719    -0.01100
Br1872     Br  0.62961596  0.95508364  0.89789032    -0.01100
C1873       C  0.40704866  0.92765301  0.92094644    -0.02200
C1874       C  0.40369134  0.93547489  0.89413065     0.07400
C1875       C  0.42110416  0.95477894  0.88381054    -0.02400
C1876       C  0.43804853  0.96905436  0.90067795    -0.02400
C1877       C  0.43909582  0.96315675  0.92793433     0.07600
C1878       C  0.42495347  0.94115062  0.93744499    -0.02600
Br1879     Br  0.43168869  0.92786054  0.97281152    -0.01100
Br1880     Br  0.38832304  0.89846680  0.93650898    -0.01200
Br1881     Br  0.45934272  0.99696931  0.88600248    -0.01100
Br1882     Br  0.42408764  0.96004130  0.84602552    -0.01100
C1883       C  0.30872803  0.95789757  0.83873160    -0.02200
C1884       C  0.32903130  0.94342525  0.82624323     0.07400
C1885       C  0.32849822  0.94215052  0.79829303    -0.02400
C1886       C  0.30495676  0.94751618  0.78446373    -0.02400
C1887       C  0.28319275  0.95834847  0.79786166     0.07600
C1888       C  0.28550167  0.96397689  0.82501906    -0.02600
Br1889     Br  0.25598554  0.97813172  0.84433454    -0.01100
Br1890     Br  0.31283904  0.97110332  0.87415419    -0.01200
Br1891     Br  0.30305001  0.94026029  0.74717820    -0.01100
Br1892     Br  0.36102138  0.94307619  0.77859560    -0.01100
C1893       C  0.19230726  0.73189095  0.07814861    -0.02200
C1894       C  0.20519580  0.72833377  0.05385391     0.07400
C1895       C  0.20886497  0.70259752  0.04405809    -0.02400
C1896       C  0.19627720  0.68107617  0.05623765    -0.02400
C1897       C  0.17938286  0.68543044  0.07804171     0.07600
C1898       C  0.18145083  0.71011843  0.09116351    -0.02600
Br1899     Br  0.17340278  0.71408710  0.12819018    -0.01100
Br1900     Br  0.18790952  0.76659204  0.09338106    -0.01200
Br1901     Br  0.20660445  0.64592279  0.04592021    -0.01100
Br1902     Br  0.23289357  0.69651829  0.01531475    -0.01100
C1903       C  0.34146061  0.83069450  0.11512218    -0.02200
C1904       C  0.36122528  0.84726681  0.10417685     0.07400
C1905       C  0.35853851  0.85531812  0.07752741    -0.02400
C1906       C  0.33726941  0.84625817  0.06197830    -0.02400
C1907       C  0.31879293  0.82817262  0.07237263     0.07600
C1908       C  0.32086331  0.82070861  0.09915075    -0.02600
Br1909     Br  0.29636269  0.79555549  0.11378180    -0.01100
Br1910     Br  0.34103380  0.82296009  0.15256473    -0.01200
Br1911     Br  0.33300775  0.85974381  0.02643268    -0.01100
Br1912     Br  0.38427553  0.87790340  0.06117906    -0.01100
C1913       C  0.12730260  0.82453617  0.92362074    -0.02200
C1914       C  0.13366427  0.84094051  0.90188628     0.07400
C1915       C  0.16029342  0.84364773  0.89454093    -0.02400
C1916       C  0.18035415  0.83391697  0.91111756    -0.02400
C1917       C  0.17390605  0.82024330  0.93449765     0.07600
C1918       C  0.14733817  0.81505171  0.94040647    -0.02600
Br1919     Br  0.13827755  0.79620932  0.97225336    -0.01100
Br1920     Br  0.09142499  0.81317500  0.92945489    -0.01200
Br1921     Br  0.21681757  0.83840133  0.90127950    -0.01100
Br1922     Br  0.16930036  0.85678138  0.85996118    -0.01100
C1923       C  0.30804546  0.88376862  0.94398308    -0.02200
C1924       C  0.30211247  0.85675195  0.94214838     0.07400
C1925       C  0.31126278  0.84190507  0.92037000    -0.02400
C1926       C  0.32679718  0.85396412  0.90091337    -0.02400
C1927       C  0.33195399  0.88110600  0.90227479     0.07600
C1928       C  0.32255537  0.89599202  0.92387333    -0.02600
Br1929     Br  0.33022734  0.93305987  0.92677943    -0.01100
Br1930     Br  0.29706331  0.90410544  0.97433651    -0.01200
Br1931     Br  0.34028655  0.83336045  0.87200533    -0.01100
Br1932     Br  0.30061580  0.80561666  0.91554478    -0.01100
C1933       C  0.14415445  0.86823422  0.07944582    -0.02200
C1934       C  0.15031738  0.89419743  0.08726088     0.07400
C1935       C  0.16817487  0.90835476  0.07138411    -0.02400
C1936       C  0.18612346  0.89505432  0.05509411    -0.02400
C1937       C  0.18406356  0.86754183  0.05232489     0.07600
C1938       C  0.16132009  0.85478756  0.06218711    -0.02600
Br1939     Br  0.15290316  0.81943949  0.05085222    -0.01100
Br1940     Br  0.11079825  0.85243556  0.08812368    -0.01200
Br1941     Br  0.21396562  0.91472588  0.03828278    -0.01100
Br1942     Br  0.16440963  0.94574465  0.06819957    -0.01100
C1943       C  0.21663314  0.96605502  0.17426126    -0.02200
C1944       C  0.21701711  0.96416509  0.20193075     0.07400
C1945       C  0.19474784  0.95414381  0.21506915    -0.02400
C1946       C  0.17282298  0.94476196  0.20049047    -0.02400
C1947       C  0.17385797  0.94301930  0.17235727     0.07600
C1948       C  0.19488548  0.95677936  0.15974854    -0.02600
Br1949     Br  0.19307898  0.96817000  0.12358366    -0.01100
Br1950     Br  0.24621725  0.98161859  0.15582508    -0.01200
Br1951     Br  0.14012656  0.94034844  0.21943125    -0.01100
Br1952     Br  0.19346540  0.95537403  0.25321251    -0.01100
C1953       C  0.31503029  0.09129573  0.13262363    -0.02200
C1954       C  0.33763177  0.10744032  0.13654550     0.07400
C1955       C  0.35073346  0.10598589  0.16131636    -0.02400
C1956       C  0.34014521  0.09084194  0.18218342    -0.02400
C1957       C  0.31750205  0.07507551  0.17824879     0.07600
C1958       C  0.30519956  0.07524175  0.15323201    -0.02600
Br1959     Br  0.27578796  0.05206963  0.14638307    -0.01100
Br1960     Br  0.29875059  0.08847250  0.09809820    -0.01200
Br1961     Br  0.35628059  0.09295392  0.21689358    -0.01100
Br1962     Br  0.38382445  0.12344033  0.16765357    -0.01100
C1963       C  0.34296198  0.93583432  0.36429894    -0.02200
C1964       C  0.33365073  0.90962922  0.36761729     0.07400
C1965       C  0.31442237  0.90021236  0.34942482    -0.02400
C1966       C  0.30303087  0.91715523  0.33038260    -0.02400
C1967       C  0.31159758  0.94348571  0.32800775     0.07600
C1968       C  0.33236462  0.95230067  0.34442386    -0.02600
Br1969     Br  0.34804177  0.98660299  0.33860976    -0.01100
Br1970     Br  0.37009498  0.95062254  0.38646786    -0.01200
Br1971     Br  0.27501611  0.90409391  0.30799224    -0.01100
Br1972     Br  0.30479894  0.86342937  0.34832217    -0.01100
C1973       C  0.39353029  0.92353141  0.18982795    -0.02200
C1974       C  0.38047362  0.90894240  0.16968915     0.07400
C1975       C  0.35362633  0.91442629  0.16455965    -0.02400
C1976       C  0.34030134  0.93377964  0.17922405    -0.02400
C1977       C  0.35288475  0.94657407  0.20053932     0.07600
C1978       C  0.37959766  0.94145355  0.20572314    -0.02600
Br1979     Br  0.39701143  0.95772270  0.23562875    -0.01100
Br1980     Br  0.43099413  0.92113987  0.19510346    -0.01200
Br1981     Br  0.30479807  0.94335874  0.16917225    -0.01100
Br1982     Br  0.33357321  0.89475427  0.13901178    -0.01100
C1983       C  0.34359232  0.09587743  0.30448617    -0.02200
C1984       C  0.35441556  0.07030074  0.30365618     0.07400
C1985       C  0.37913818  0.06552209  0.31540227    -0.02400
C1986       C  0.39149326  0.08549378  0.33030923    -0.02400
C1987       C  0.37884107  0.11004211  0.33401170     0.07600
C1988       C  0.35633422  0.11592009  0.31874211    -0.02600
Br1989     Br  0.34507792  0.15203790  0.31416978    -0.01100
Br1990     Br  0.31221721  0.10400557  0.28437624    -0.01200
Br1991     Br  0.42714549  0.08026950  0.34257890    -0.01100
Br1992     Br  0.39635601  0.03200877  0.31071396    -0.01100
C1993       C  0.53502822  0.80221705  0.69349220    -0.02200
C1994       C  0.54603400  0.80247757  0.71901437     0.07400
C1995       C  0.57147961  0.81240877  0.72267375    -0.02400
C1996       C  0.58486894  0.82406528  0.70139619    -0.02400
C1997       C  0.57160827  0.82930395  0.67710777     0.07600
C1998       C  0.54792471  0.81508220  0.67239434    -0.02600
Br1999     Br  0.53557765  0.80822477  0.63689490    -0.01100
Br2000     Br  0.50313712  0.78267485  0.68729338    -0.01200
Br2001     Br  0.62244044  0.82707433  0.70468965    -0.01100
Br2002     Br  0.58819287  0.80948763  0.75695218    -0.01100
C2003       C  0.43212154  0.83712014  0.83806130    -0.02200
C2004       C  0.42466841  0.82330481  0.81528406     0.07400
C2005       C  0.39999687  0.82837575  0.80376923    -0.02400
C2006       C  0.38353737  0.84810478  0.81454380    -0.02400
C2007       C  0.39321329  0.86509821  0.83484144     0.07600
C2008       C  0.41825635  0.85959315  0.84590539    -0.02600
Br2009     Br  0.43651480  0.88382113  0.86882077    -0.01100
Br2010     Br  0.45922823  0.82290512  0.86064166    -0.01200
Br2011     Br  0.34752588  0.84985675  0.80217940    -0.01100
Br2012     Br  0.38889224  0.80833906  0.77336382    -0.01100
C2013       C  0.58228805  0.80559149  0.85080458    -0.02200
C2014       C  0.55649454  0.81537998  0.85174982     0.07400
C2015       C  0.55212188  0.84130976  0.86059739    -0.02400
C2016       C  0.57302941  0.85642123  0.87104993    -0.02400
C2017       C  0.59911485  0.84632254  0.87074887     0.07600
C2018       C  0.60350578  0.82163012  0.85833014    -0.02600
Br2019     Br  0.63836727  0.81066758  0.84804874    -0.01100
Br2020     Br  0.58875176  0.77035356  0.83796712    -0.01200
Br2021     Br  0.56452867  0.89052792  0.88537933    -0.01100
Br2022     Br  0.51737812  0.85626164  0.85844836    -0.01100
C2023       C  0.43381443  0.33425836  0.65621176    -0.02200
C2024       C  0.44050252  0.30936422  0.64582212     0.07400
C2025       C  0.42931511  0.30106772  0.62184645    -0.02400
C2026       C  0.41075851  0.31712814  0.60883216    -0.02400
C2027       C  0.40139720  0.34081288  0.62097169     0.07600
C2028       C  0.41357027  0.34934754  0.64466611    -0.02600
Br2029     Br  0.40167721  0.38015665  0.66346490    -0.01100
Br2030     Br  0.45294955  0.34797715  0.68634034    -0.01200
Br2031     Br  0.40017920  0.30660014  0.57346324    -0.01100
Br2032     Br  0.43803391  0.26682712  0.60756827    -0.01100
C2033       C  0.41977243  0.40105175  0.55986891    -0.02200
C2034       C  0.39249926  0.40613737  0.55902409     0.07400
C2035       C  0.38364236  0.42807690  0.54422886    -0.02400
C2036       C  0.40189781  0.44559628  0.53229835    -0.02400
C2037       C  0.42950396  0.44188510  0.53557048     0.07600
C2038       C  0.43810750  0.41903627  0.54937542    -0.02600
Br2039     Br  0.47505851  0.41171102  0.55576747    -0.01100
Br2040     Br  0.43267418  0.36796404  0.57279012    -0.01200
Br2041     Br  0.38831678  0.47390771  0.51065239    -0.01100
Br2042     Br  0.34636280  0.43461113  0.54043775    -0.01100
C2043       C  0.57127620  0.40204170  0.42859749    -0.02200
C2044       C  0.56248378  0.39969594  0.40214971     0.07400
C2045       C  0.54051446  0.41492731  0.39381314    -0.02400
C2046       C  0.52831019  0.43260929  0.41148401    -0.02400
C2047       C  0.53853164  0.43622043  0.43716503     0.07600
C2048       C  0.56002476  0.42079699  0.44565288    -0.02600
Br2049     Br  0.57552557  0.42651369  0.48015598    -0.01100
Br2050     Br  0.59763382  0.37862001  0.44266374    -0.01200
Br2051     Br  0.49692586  0.45135362  0.40070982    -0.01100
Br2052     Br  0.52753352  0.41335115  0.35787137    -0.01100
C2053       C  0.38195788  0.66629231  0.32470893    -0.02200
C2054       C  0.39273845  0.64154529  0.33125772     0.07400
C2055       C  0.41669512  0.63411548  0.31946260    -0.02400
C2056       C  0.43253448  0.65306333  0.30672036    -0.02400
C2057       C  0.42397933  0.67974151  0.30476972     0.07600
C2058       C  0.39741477  0.68538404  0.31161212    -0.02600
Br2059     Br  0.38048854  0.71779022  0.30105859    -0.01100
Br2060     Br  0.34493800  0.67287649  0.33088902    -0.01200
Br2061     Br  0.46448815  0.64089339  0.28978091    -0.01100
Br2062     Br  0.42592230  0.59717112  0.31730473    -0.01100
C2063       C  0.39775904  0.54471609  0.40494651    -0.02200
C2064       C  0.40412284  0.56912330  0.39215534     0.07400
C2065       C  0.42922954  0.58050654  0.39772841    -0.02400
C2066       C  0.44664367  0.56842952  0.41585759    -0.02400
C2067       C  0.43980151  0.54468128  0.42838893     0.07600
C2068       C  0.41572340  0.53259646  0.42241272    -0.02600
Br2069     Br  0.40780644  0.49856583  0.43789856    -0.01100
Br2070     Br  0.36415235  0.52720253  0.40129314    -0.01200
Br2071     Br  0.47978615  0.58517649  0.42459062    -0.01100
Br2072     Br  0.44168012  0.61217807  0.38074587    -0.01100
C2073       C  0.43212181  0.58951832  0.59750323    -0.02200
C2074       C  0.43704350  0.61698642  0.59531486     0.07400
C2075       C  0.45530239  0.62567334  0.57588989    -0.02400
C2076       C  0.46878236  0.60728409  0.55986276    -0.02400
C2077       C  0.46466176  0.58007020  0.56327284     0.07600
C2078       C  0.44663154  0.57134124  0.58238823    -0.02600
Br2079     Br  0.44282403  0.53387941  0.58873351    -0.01100
Br2080     Br  0.40535469  0.57532066  0.62019877    -0.01200
Br2081     Br  0.49203383  0.61939465  0.53239451    -0.01100
Br2082     Br  0.46045175  0.66286392  0.56921699    -0.01100
C2083       C  0.44004981  0.71502322  0.67040120    -0.02200
C2084       C  0.44344142  0.68751072  0.66667133     0.07400
C2085       C  0.46071332  0.67427956  0.68449957    -0.02400
C2086       C  0.46799107  0.68600458  0.70851906    -0.02400
C2087       C  0.46034038  0.71198745  0.71411444     0.07600
C2088       C  0.44662233  0.72663524  0.69486015    -0.02600
Br2089     Br  0.43713731  0.76284563  0.70160787    -0.01100
Br2090     Br  0.43566419  0.73851211  0.64072630    -0.01200
Br2091     Br  0.48650439  0.66536417  0.73491084    -0.01100
Br2092     Br  0.47650068  0.64079387  0.67612971    -0.01100
C2093       C  0.56090521  0.35360309  0.69655019    -0.02200
C2094       C  0.56181798  0.32853145  0.68468503     0.07400
C2095       C  0.57834238  0.32452369  0.66263157    -0.02400
C2096       C  0.59357617  0.34535086  0.65239772    -0.02400
C2097       C  0.59454715  0.36999642  0.66558238     0.07600
C2098       C  0.57764620  0.37397868  0.68764263    -0.02600
Br2099     Br  0.57546297  0.40791430  0.70494733    -0.01100
Br2100     Br  0.53512992  0.36076496  0.72363011    -0.01200
Br2101     Br  0.61228515  0.33890615  0.61997065    -0.01100
Br2102     Br  0.58132855  0.28981070  0.64686217    -0.01100
C2103       C  0.56965430  0.44234797  0.61275913    -0.02200
C2104       C  0.59708544  0.44703943  0.61280272     0.07400
C2105       C  0.60742363  0.46587837  0.59488036    -0.02400
C2106       C  0.59103580  0.47723692  0.57530361    -0.02400
C2107       C  0.56374644  0.47202652  0.57506299     0.07600
C2108       C  0.55306645  0.45546790  0.59465346    -0.02600
Br2109     Br  0.51536603  0.45201114  0.59771389    -0.01100
Br2110     Br  0.55412283  0.41881182  0.63810477    -0.01200
Br2111     Br  0.60641217  0.49800330  0.54735061    -0.01100
Br2112     Br  0.64432099  0.47526688  0.59574314    -0.01100
C2113       C  0.68944601  0.41964274  0.69479310    -0.02200
C2114       C  0.66801434  0.43522108  0.68560268     0.07400
C2115       C  0.66672468  0.46158901  0.69488500    -0.02400
C2116       C  0.68930694  0.47357686  0.70593040    -0.02400
C2117       C  0.71234710  0.45871836  0.71019494     0.07600
C2118       C  0.71203573  0.43154237  0.70545989    -0.02600
Br2119     Br  0.74326660  0.41077063  0.71218545    -0.01100
Br2120     Br  0.68729438  0.38190442  0.69627516    -0.01200
Br2121     Br  0.68841532  0.51013147  0.71629065    -0.01100
Br2122     Br  0.63321249  0.47868305  0.70049926    -0.01100
C2123       C  0.56883644  0.65700567  0.37406812    -0.02200
C2124       C  0.59535111  0.66527356  0.37053819     0.07400
C2125       C  0.60010424  0.68705610  0.35361427    -0.02400
C2126       C  0.57918939  0.70252577  0.34418463    -0.02400
C2127       C  0.55311687  0.69631889  0.35092895     0.07600
C2128       C  0.54787416  0.67307346  0.36507516    -0.02600
Br2129     Br  0.51175290  0.66320669  0.37156372    -0.01100
Br2130     Br  0.56015966  0.62285017  0.38809513    -0.01200
Br2131     Br  0.58620535  0.73222580  0.32133282    -0.01100
Br2132     Br  0.63510392  0.69487422  0.34111592    -0.01100
C2133       C  0.58386047  0.61600952  0.44960873    -0.02200
C2134       C  0.60845062  0.60686981  0.44055605     0.07400
C2135       C  0.61744388  0.58198666  0.44904243    -0.02400
C2136       C  0.59967664  0.56408507  0.46065848    -0.02400
C2137       C  0.57382226  0.57220189  0.46657424     0.07600
C2138       C  0.56637409  0.59853439  0.46209900    -0.02600
Br2139     Br  0.53192587  0.61047295  0.47246736    -0.01100
Br2140     Br  0.57498953  0.65290050  0.44712724    -0.01200
Br2141     Br  0.61054106  0.52846777  0.46803760    -0.01100
Br2142     Br  0.65462116  0.57409078  0.44848824    -0.01100
C2143       C  0.21383752  0.43868550  0.79078973    -0.02200
C2144       C  0.22002550  0.46543573  0.79350779     0.07400
C2145       C  0.20565696  0.48114261  0.81111844    -0.02400
C2146       C  0.18639127  0.46984037  0.82743457    -0.02400
C2147       C  0.17759241  0.44335933  0.82322487     0.07600
C2148       C  0.19285514  0.42761575  0.80529021    -0.02600
Br2149     Br  0.18890325  0.38992371  0.80186076    -0.01100
Br2150     Br  0.23602680  0.41656353  0.76889108    -0.01200
Br2151     Br  0.17882310  0.49002352  0.85879346    -0.01100
Br2152     Br  0.21301685  0.51862300  0.81355573    -0.01100
C2153       C  0.32258474  0.41939887  0.68234407    -0.02200
C2154       C  0.32555198  0.44674684  0.67918432     0.07400
C2155       C  0.33850077  0.45650684  0.65652526    -0.02400
C2156       C  0.34732168  0.43906722  0.63662510    -0.02400
C2157       C  0.34325537  0.41165068  0.63911896     0.07600
C2158       C  0.33177952  0.40197338  0.66271036    -0.02600
Br2159     Br  0.33050595  0.36473476  0.66949028    -0.01100
Br2160     Br  0.30671555  0.40578833  0.71420393    -0.01200
Br2161     Br  0.36470832  0.45311972  0.60603022    -0.01100
Br2162     Br  0.34305278  0.49404592  0.65218196    -0.01100
C2163       C  0.37992475  0.58033330  0.70241763    -0.02200
C2164       C  0.35226683  0.57857597  0.70100071     0.07400
C2165       C  0.33855403  0.59344151  0.68159421    -0.02400
C2166       C  0.35236289  0.61056596  0.66460825    -0.02400
C2167       C  0.37999145  0.61268153  0.66646383     0.07600
C2168       C  0.39364240  0.59623797  0.68446143    -0.02600
Br2169     Br  0.43136755  0.59303521  0.68311984    -0.01100
Br2170     Br  0.39950884  0.56270730  0.73016712    -0.01200
Br2171     Br  0.33290149  0.63089741  0.63903813    -0.01100
Br2172     Br  0.30077872  0.59035814  0.67735182    -0.01100
C2173       C  0.34071665  0.37759101  0.07151342    -0.02200
C2174       C  0.33669867  0.37360411  0.09881598     0.07400
C2175       C  0.31742659  0.35530505  0.10719068    -0.02400
C2176       C  0.30019936  0.34387763  0.08884855    -0.02400
C2177       C  0.30270253  0.34962690  0.06162848     0.07600
C2178       C  0.32368701  0.36567225  0.05293602    -0.02600
Br2179     Br  0.32972960  0.37061874  0.01558346    -0.01100
Br2180     Br  0.36934249  0.39917216  0.05928360    -0.01200
Br2181     Br  0.27211972  0.32167236  0.10194979    -0.01100
Br2182     Br  0.31447911  0.34557438  0.14417492    -0.01100
C2183       C  0.40870749  0.47514964  0.07556632    -0.02200
C2184       C  0.43617064  0.47160095  0.07849069     0.07400
C2185       C  0.44548577  0.45396081  0.09805454    -0.02400
C2186       C  0.42766914  0.43815450  0.11240462    -0.02400
C2187       C  0.40027218  0.44107651  0.10882077     0.07600
C2188       C  0.39095130  0.45988064  0.09040913    -0.02600
Br2189     Br  0.35374045  0.46388738  0.08384255    -0.01100
Br2190     Br  0.39501520  0.50234459  0.05246144    -0.01200
Br2191     Br  0.44126597  0.41242309  0.13682240    -0.01100
Br2192     Br  0.48249396  0.45150670  0.10620260    -0.01100
C2193       C  0.60655925  0.66480919  0.82249743    -0.02200
C2194       C  0.59664689  0.64285064  0.83667959     0.07400
C2195       C  0.56919585  0.64098108  0.84084090    -0.02400
C2196       C  0.55213832  0.66093160  0.83160946    -0.02400
C2197       C  0.56224652  0.68313549  0.81833471     0.07600
C2198       C  0.58942865  0.68466492  0.81322285    -0.02600
Br2199     Br  0.60342904  0.71454879  0.79424911    -0.01100
Br2200     Br  0.64381408  0.66934861  0.81721336    -0.01200
Br2201     Br  0.51453903  0.65712421  0.83566583    -0.01100
Br2202     Br  0.55436789  0.61085188  0.85837763    -0.01100
C2203       C  0.59401363  0.58047070  0.92516316    -0.02200
C2204       C  0.59536102  0.57288956  0.89812448     0.07400
C2205       C  0.57902645  0.55171621  0.88948137    -0.02400
C2206       C  0.56294815  0.53794616  0.90759204    -0.02400
C2207       C  0.56215780  0.54545833  0.93431351     0.07600
C2208       C  0.57791654  0.56656547  0.94301866    -0.02600
Br2209     Br  0.57846003  0.57567156  0.98027802    -0.01100
Br2210     Br  0.61355215  0.60972234  0.93937198    -0.01200
Br2211     Br  0.54104833  0.50939234  0.89550151    -0.01100
Br2212     Br  0.57586341  0.54273951  0.85240014    -0.01100
C2213       C  0.69710295  0.56632130  0.78872802    -0.02200
C2214       C  0.71019992  0.54475729  0.80013840     0.07400
C2215       C  0.70260029  0.53600794  0.82541486    -0.02400
C2216       C  0.68233290  0.54902505  0.83933687    -0.02400
C2217       C  0.66900541  0.57141988  0.82821233     0.07600
C2218       C  0.67876806  0.58092953  0.80346308    -0.02600
Br2219     Br  0.67430028  0.61661005  0.79132879    -0.01100
Br2220     Br  0.70426610  0.57631691  0.75239389    -0.01200
Br2221     Br  0.67695567  0.53702994  0.87523216    -0.01100
Br2222     Br  0.72142391  0.50721353  0.84236976    -0.01100
C2223       C  0.42564679  0.67249912  0.89080013    -0.02200
C2224       C  0.39893429  0.67274686  0.88305480     0.07400
C2225       C  0.39075657  0.69005636  0.86273274    -0.02400
C2226       C  0.40900619  0.70666174  0.85025772    -0.02400
C2227       C  0.43597104  0.70591203  0.85740960     0.07600
C2228       C  0.44407298  0.68922930  0.87828237    -0.02600
Br2229     Br  0.48012583  0.68947125  0.89038183    -0.01100
Br2230     Br  0.43694274  0.65010716  0.91933302    -0.01200
Br2231     Br  0.39605663  0.73223075  0.82490557    -0.01100
Br2232     Br  0.35409328  0.69159266  0.85197811    -0.01100
C2233       C  0.31206375  0.59186805  0.87577620    -0.02200
C2234       C  0.33382943  0.60879521  0.87089945     0.07400
C2235       C  0.34566436  0.60796895  0.84552096    -0.02400
C2236       C  0.33479439  0.59220343  0.82520395    -0.02400
C2237       C  0.31221890  0.57671825  0.82983493     0.07600
C2238       C  0.30128752  0.57617118  0.85536766    -0.02600
Br2239     Br  0.27128045  0.55386390  0.86231832    -0.01100
Br2240     Br  0.29846789  0.58756097  0.91109942    -0.01200
Br2241     Br  0.35197952  0.59041274  0.79115210    -0.01100
Br2242     Br  0.37712019  0.62755438  0.83769210    -0.01100
C2243       C  0.40367166  0.61269780  0.96889472    -0.02200
C2244       C  0.38848617  0.60510479  0.94651844     0.07400
C2245       C  0.39058375  0.57876015  0.93745014    -0.02400
C2246       C  0.40868442  0.56114651  0.94920028    -0.02400
C2247       C  0.42437444  0.56933717  0.97070913     0.07600
C2248       C  0.42105260  0.59478817  0.98105832    -0.02600
Br2249     Br  0.43983008  0.60486251  0.01280075    -0.01100
Br2250     Br  0.40291544  0.64795453  0.98273313    -0.01200
Br2251     Br  0.41279710  0.52608193  0.93481670    -0.01100
Br2252     Br  0.36800569  0.56566769  0.90982189    -0.01100
C2253       C  0.33429789  0.70310835  0.95473333    -0.02200
C2254       C  0.32210356  0.68066355  0.94312849     0.07400
C2255       C  0.29423796  0.67935205  0.94419521    -0.02400
C2256       C  0.27921665  0.70171920  0.95140545    -0.02400
C2257       C  0.29185388  0.72496959  0.96040916     0.07600
C2258       C  0.31965035  0.72569987  0.96060282    -0.02600
Br2259     Br  0.33871576  0.75860111  0.96494068    -0.01100
Br2260     Br  0.37107695  0.70355629  0.96475504    -0.01200
Br2261     Br  0.24147086  0.70014501  0.94695281    -0.01100
Br2262     Br  0.27649671  0.64581077  0.94312345    -0.01100
C2263       C  0.36665679  0.32469941  0.91735514    -0.02200
C2264       C  0.36289587  0.34687264  0.90053150     0.07400
C2265       C  0.33777400  0.35886112  0.89973345    -0.02400
C2266       C  0.31698439  0.34924388  0.91561695    -0.02400
C2267       C  0.32072664  0.32704526  0.93218430     0.07600
C2268       C  0.34571405  0.31483052  0.93281442    -0.02600
Br2269     Br  0.35204226  0.28522660  0.95609679    -0.01100
Br2270     Br  0.40078706  0.30791625  0.92075302    -0.01200
Br2271     Br  0.28286667  0.36600284  0.91343314    -0.01100
Br2272     Br  0.33082527  0.38733076  0.87541437    -0.01100
C2273       C  0.37392482  0.43922115  0.85050128    -0.02200
C2274       C  0.38861686  0.41908063  0.83766064     0.07400
C2275       C  0.39553081  0.42416733  0.81067807    -0.02400
C2276       C  0.38072294  0.44178439  0.79532052    -0.02400
C2277       C  0.36237234  0.45837038  0.80750149     0.07600
C2278       C  0.36024147  0.45819875  0.83531917    -0.02600
Br2279     Br  0.33932027  0.48489632  0.85283025    -0.01100
Br2280     Br  0.37714695  0.44639992  0.88777344    -0.01200
Br2281     Br  0.38474717  0.44159785  0.75728578    -0.01100
Br2282     Br  0.42910131  0.41395546  0.79564263    -0.01100
C2283       C  0.45275779  0.42216757  0.89725575    -0.02200
C2284       C  0.43822710  0.40042286  0.90683374     0.07400
C2285       C  0.43484684  0.39762246  0.93437472    -0.02400
C2286       C  0.44712714  0.41531833  0.95205185    -0.02400
C2287       C  0.46257897  0.43628976  0.94233628     0.07600
C2288       C  0.46478533  0.43995885  0.91489121    -0.02600
Br2289     Br  0.48186923  0.47111117  0.90146364    -0.01100
Br2290     Br  0.45431252  0.42951196  0.86005067    -0.01200
Br2291     Br  0.44251642  0.41098764  0.98968594    -0.01100
Br2292     Br  0.41251732  0.37035383  0.94812810    -0.01100
C2293       C  0.42022148  0.31229413  0.81729225    -0.02200
C2294       C  0.43438381  0.33259389  0.83072293     0.07400
C2295       C  0.45976892  0.33908612  0.82046488    -0.02400
C2296       C  0.47170201  0.32353621  0.80065874    -0.02400
C2297       C  0.45822318  0.30166631  0.78959200     0.07600
C2298       C  0.43300207  0.29539920  0.79939148    -0.02600
Br2299     Br  0.41553769  0.26298684  0.78938187    -0.01100
Br2300     Br  0.38205476  0.31119287  0.81614372    -0.01200
Br2301     Br  0.50635458  0.33400988  0.78820688    -0.01100
Br2302     Br  0.47718155  0.37205711  0.82860538    -0.01100
C2303       C  0.53476558  0.60903169  0.06512125    -0.02200
C2304       C  0.54199147  0.58215819  0.06451693     0.07400
C2305       C  0.56478615  0.57424966  0.07840186    -0.02400
C2306       C  0.57856644  0.59215275  0.09478584    -0.02400
C2307       C  0.57003972  0.61882392  0.09737360     0.07600
C2308       C  0.54894997  0.62722039  0.08090491    -0.02600
Br2309     Br  0.54105458  0.66426721  0.07725764    -0.01100
Br2310     Br  0.50509966  0.62128168  0.04464577    -0.01200
Br2311     Br  0.60915597  0.57841083  0.11250513    -0.01100
Br2312     Br  0.57863903  0.53893929  0.07332319    -0.01100
C2313       C  0.57093748  0.70943535  0.21781031    -0.02200
C2314       C  0.54367119  0.71328342  0.21671441     0.07400
C2315       C  0.53001816  0.70763772  0.19316538    -0.02400
C2316       C  0.54345528  0.69722801  0.17105740    -0.02400
C2317       C  0.57028044  0.68951847  0.17325175     0.07600
C2318       C  0.58432444  0.69836371  0.19619613    -0.02600
Br2319     Br  0.62220801  0.69649475  0.19919160    -0.01100
Br2320     Br  0.58981625  0.71787620  0.24996670    -0.01200
Br2321     Br  0.52637225  0.70024589  0.13715960    -0.01100
Br2322     Br  0.49287217  0.71506614  0.19096995    -0.01100
C2323       C  0.56163279  0.42681275  0.06160670    -0.02200
C2324       C  0.56987715  0.44524229  0.04272713     0.07400
C2325       C  0.59691121  0.44803216  0.03753836    -0.02400
C2326       C  0.61545830  0.43177246  0.05061885    -0.02400
C2327       C  0.60723880  0.41324135  0.07011583     0.07600
C2328       C  0.58007019  0.41304817  0.07711011    -0.02600
Br2329     Br  0.56654695  0.39804705  0.10938106    -0.01100
Br2330     Br  0.52472018  0.41827686  0.06417504    -0.01200
Br2331     Br  0.65233167  0.43758431  0.04352253    -0.01100
Br2332     Br  0.60845936  0.47458385  0.01280457    -0.01100
C2333       C  0.66348002  0.32272768  0.04133360    -0.02200
C2334       C  0.67665191  0.34118116  0.05773303     0.07400
C2335       C  0.70453005  0.34084810  0.05731552    -0.02400
C2336       C  0.71818277  0.31854594  0.04771367    -0.02400
C2337       C  0.70416961  0.29709051  0.03642137     0.07600
C2338       C  0.67665216  0.30017811  0.03205781    -0.02600
Br2339     Br  0.65524410  0.27324287  0.01535509    -0.01100
Br2340     Br  0.62699061  0.32793131  0.03127771    -0.01200
Br2341     Br  0.75630204  0.31877285  0.04923368    -0.01100
Br2342     Br  0.72428257  0.37288391  0.06237868    -0.01100
C2343       C  0.02818858  0.61101863  0.43503910    -0.02200
C2344       C  0.03784160  0.58581324  0.44100022     0.07400
C2345       C  0.06308722  0.57861459  0.43252449    -0.02400
C2346       C  0.07647070  0.59385085  0.41369021    -0.02400
C2347       C  0.06622006  0.61885671  0.40597421     0.07600
C2348       C  0.04303991  0.62807949  0.41888234    -0.02600
Br2349     Br  0.03262009  0.66471522  0.41736413    -0.01100
Br2350     Br  0.99469656  0.62214537  0.44904693    -0.01200
Br2351     Br  0.10758736  0.57794178  0.39876811    -0.01100
Br2352     Br  0.08051998  0.54919327  0.44937516    -0.01100
C2353       C  0.05607937  0.66903939  0.30345568    -0.02200
C2354       C  0.06410643  0.68128837  0.32726141     0.07400
C2355       C  0.05640766  0.70790884  0.33116316    -0.02400
C2356       C  0.04689374  0.72293372  0.30962521    -0.02400
C2357       C  0.04472687  0.71136446  0.28433024     0.07600
C2358       C  0.04939895  0.68419322  0.28144852    -0.02600
Br2359     Br  0.04813547  0.66716874  0.24719782    -0.01100
Br2360     Br  0.04834743  0.63194532  0.30181070    -0.01200
Br2361     Br  0.03513411  0.75869105  0.31526679    -0.01100
Br2362     Br  0.05338533  0.72241711  0.36634301    -0.01100
C2363       C  0.86307823  0.43509483  0.65152611    -0.02200
C2364       C  0.88315647  0.41899769  0.66290673     0.07400
C2365       C  0.89121640  0.42575558  0.68912904    -0.02400
C2366       C  0.87459107  0.44011811  0.70582518    -0.02400
C2367       C  0.85252651  0.45316545  0.69536206     0.07600
C2368       C  0.84786457  0.45194158  0.66778053    -0.02600
Br2369     Br  0.82127844  0.47433470  0.65170618    -0.01100
Br2370     Br  0.85809941  0.43890453  0.61392629    -0.01200
Br2371     Br  0.88164810  0.43969134  0.74346316    -0.01100
Br2372     Br  0.92701939  0.42091258  0.70163895    -0.01100
C2373       C  0.95352024  0.42338140  0.60488922    -0.02200
C2374       C  0.93723056  0.40300691  0.59495313     0.07400
C2375       C  0.93250708  0.40173412  0.56748001    -0.02400
C2376       C  0.94434784  0.42010376  0.55025070    -0.02400
C2377       C  0.96079982  0.44008825  0.56035274     0.07600
C2378       C  0.96518313  0.44180032  0.58770558    -0.02600
Br2379     Br  0.98556261  0.47079428  0.60177191    -0.01100
Br2380     Br  0.95866534  0.42775163  0.64217653    -0.01200
Br2381     Br  0.93828719  0.41780398  0.51262498    -0.01100
Br2382     Br  0.90980837  0.37503673  0.55314118    -0.01100
C2383       C  0.93118618  0.30396446  0.70901376    -0.02200
C2384       C  0.95848959  0.30488676  0.71327414     0.07400
C2385       C  0.97412183  0.32136795  0.69746172    -0.02400
C2386       C  0.96252516  0.33798032  0.67836990    -0.02400
C2387       C  0.93511515  0.33569476  0.67199097     0.07600
C2388       C  0.91942604  0.31957543  0.68913698    -0.02600
Br2389     Br  0.88122510  0.32153085  0.68957329    -0.01100
Br2390     Br  0.90943919  0.28278648  0.73213147    -0.01200
Br2391     Br  0.98415437  0.36753643  0.66798021    -0.01100
Br2392     Br  0.01199485  0.32148506  0.70241816    -0.01100
C2393       C  0.88965711  0.46101811  0.41393115    -0.02200
C2394       C  0.90018055  0.44312718  0.39537881     0.07400
C2395       C  0.92759402  0.43873250  0.39503203    -0.02400
C2396       C  0.94432042  0.45332142  0.41188199    -0.02400
C2397       C  0.93379520  0.47315564  0.42849381     0.07600
C2398       C  0.90631425  0.47698157  0.42921229    -0.02600
Br2399     Br  0.89106690  0.50485264  0.45028504    -0.01100
Br2400     Br  0.85256739  0.46104332  0.42173986    -0.01200
Br2401     Br  0.98138000  0.44464200  0.41323506    -0.01100
Br2402     Br  0.94240859  0.41220475  0.37230313    -0.01100
C2403       C  0.81370931  0.58765391  0.63584003    -0.02200
C2404       C  0.83311097  0.60640620  0.64314226     0.07400
C2405       C  0.84102693  0.60809005  0.66979651    -0.02400
C2406       C  0.82963218  0.59142062  0.68898106    -0.02400
C2407       C  0.80981004  0.57313202  0.68176396     0.07600
C2408       C  0.80203119  0.57132209  0.65504413    -0.02600
Br2409     Br  0.77431369  0.54731237  0.64467902    -0.01100
Br2410     Br  0.80322890  0.58357862  0.59925234    -0.01200
Br2411     Br  0.84232704  0.59308312  0.72497411    -0.01100
Br2412     Br  0.86661130  0.63408222  0.68045735    -0.01100
C2413       C  0.89227733  0.58039655  0.57563341    -0.02200
C2414       C  0.88940471  0.60731346  0.56913712     0.07400
C2415       C  0.90508329  0.61809387  0.54865805    -0.02400
C2416       C  0.92226590  0.60187381  0.53408242    -0.02400
C2417       C  0.92492741  0.57495020  0.54048455     0.07600
C2418       C  0.91016603  0.56441834  0.56164203    -0.02600
Br2419     Br  0.91571955  0.52841967  0.57296230    -0.01100
Br2420     Br  0.87187137  0.56483506  0.60361735    -0.01200
Br2421     Br  0.94167775  0.61664682  0.50483730    -0.01100
Br2422     Br  0.90536616  0.65565843  0.54206904    -0.01100
C2423       C  0.10024986  0.43953450  0.42610867    -0.02200
C2424       C  0.10282100  0.41365270  0.43612796     0.07400
C2425       C  0.08636685  0.40606297  0.45744527    -0.02400
C2426       C  0.06910903  0.42428620  0.46943728    -0.02400
C2427       C  0.06623876  0.44993083  0.45899125     0.07600
C2428       C  0.08106609  0.45686344  0.43632678    -0.02600
Br2429     Br  0.07482348  0.48951269  0.41780760    -0.01100
Br2430     Br  0.12361487  0.45246689  0.39909361    -0.01200
Br2431     Br  0.04706397  0.41266540  0.49839486    -0.01100
Br2432     Br  0.08385141  0.36984797  0.46817653    -0.01100
C2433       C  0.08447737  0.53497275  0.57607402    -0.02200
C2434       C  0.05898841  0.54548523  0.57312180     0.07400
C2435       C  0.05093004  0.56623957  0.58977779    -0.02400
C2436       C  0.06874394  0.57763577  0.60790817    -0.02400
C2437       C  0.09464943  0.56739687  0.61101484     0.07600
C2438       C  0.10177034  0.54496549  0.59551748    -0.02600
Br2439     Br  0.13520525  0.52711644  0.59912354    -0.01100
Br2440     Br  0.09688570  0.50825640  0.55171716    -0.01200
Br2441     Br  0.05608666  0.60689142  0.62848201    -0.01100
Br2442     Br  0.01482178  0.57869507  0.58855771    -0.01100
C2443       C  0.17350842  0.56380782  0.69720679    -0.02200
C2444       C  0.17646741  0.56898296  0.66976543     0.07400
C2445       C  0.19909789  0.55817581  0.65719838    -0.02400
C2446       C  0.22077614  0.54963128  0.67233078    -0.02400
C2447       C  0.21940519  0.54960671  0.70009567     0.07600
C2448       C  0.19523543  0.55525787  0.71238595    -0.02600
Br2449     Br  0.19135998  0.54925617  0.74980527    -0.01100
Br2450     Br  0.13909647  0.56356861  0.71347073    -0.01200
Br2451     Br  0.25244195  0.53765514  0.65480831    -0.01100
Br2452     Br  0.19934502  0.54962062  0.62004784    -0.01100
C2453       C  0.94139238  0.72356334  0.79421515    -0.02200
C2454       C  0.96428223  0.71312880  0.78265976     0.07400
C2455       C  0.97417564  0.68880412  0.79202892    -0.02400
C2456       C  0.96159978  0.67547973  0.81305266    -0.02400
C2457       C  0.93802195  0.68581812  0.82476164     0.07600
C2458       C  0.92700715  0.70866378  0.81257036    -0.02600
Br2459     Br  0.88997927  0.71654902  0.81335838    -0.01100
Br2460     Br  0.92897362  0.75857605  0.78515317    -0.01200
Br2461     Br  0.97607080  0.64116346  0.82173311    -0.01100
Br2462     Br  0.00386194  0.67188649  0.77466825    -0.01100
C2463       C  0.03400339  0.80315664  0.80591802    -0.02200
C2464       C  0.05076088  0.79885774  0.78424446     0.07400
C2465       C  0.07783928  0.80323764  0.78689272    -0.02400
C2466       C  0.08757139  0.81603616  0.80943765    -0.02400
C2467       C  0.06992298  0.82484967  0.82959339     0.07600
C2468       C  0.04393320  0.81465884  0.82923063    -0.02600
Br2469     Br  0.02446971  0.80901923  0.86144982    -0.01100
Br2470     Br  0.99785288  0.79149595  0.80416601    -0.01200
Br2471     Br  0.12540693  0.82074222  0.81189920    -0.01100
Br2472     Br  0.10156943  0.79202159  0.75929869    -0.01100
C2473       C  0.06668242  0.65646515  0.68950253    -0.02200
C2474       C  0.07434759  0.68291782  0.68600675     0.07400
C2475       C  0.10013385  0.68858006  0.67739143    -0.02400
C2476       C  0.11715661  0.66791164  0.66995297    -0.02400
C2477       C  0.10772728  0.64180844  0.66923810     0.07600
C2478       C  0.08380890  0.63593604  0.68202348    -0.02600
Br2479     Br  0.07604688  0.60008815  0.69207216    -0.01100
Br2480     Br  0.03238708  0.64836629  0.70356372    -0.01200
Br2481     Br  0.15399341  0.67486913  0.66359199    -0.01100
Br2482     Br  0.11208123  0.72459135  0.67595135    -0.01100
C2483       C  0.94837644  0.68175968  0.63243144    -0.02200
C2484       C  0.94337935  0.70669803  0.64354824     0.07400
C2485       C  0.91710396  0.71496975  0.64656402    -0.02400
C2486       C  0.89626892  0.69772047  0.64121916    -0.02400
C2487       C  0.90055956  0.67366665  0.62779762     0.07600
C2488       C  0.92716330  0.66556738  0.62385393    -0.02600
Br2489     Br  0.93575089  0.63230307  0.60797814    -0.01100
Br2490     Br  0.98427210  0.66951682  0.62992498    -0.01200
Br2491     Br  0.86264669  0.70579683  0.65664832    -0.01100
Br2492     Br  0.90930907  0.75056789  0.65786869    -0.01100
C2493       C  0.70811415  0.19782625  0.54145448    -0.02200
C2494       C  0.70027230  0.22428391  0.54461190     0.07400
C2495       C  0.67506191  0.22961829  0.55487746    -0.02400
C2496       C  0.65837673  0.20889886  0.56206246    -0.02400
C2497       C  0.66843223  0.18296168  0.56487150     0.07600
C2498       C  0.69247471  0.17718250  0.55177671    -0.02600
Br2499     Br  0.70262222  0.14122200  0.54455139    -0.01100
Br2500     Br  0.73887822  0.18973043  0.52094047    -0.01200
Br2501     Br  0.62099733  0.21584375  0.56053275    -0.01100
Br2502     Br  0.66290054  0.26544191  0.55989725    -0.01100
C2503       C  0.68034046  0.35008921  0.42432087    -0.02200
C2504       C  0.67616637  0.32505793  0.43559196     0.07400
C2505       C  0.65200761  0.31224431  0.43142959    -0.02400
C2506       C  0.63262719  0.32375029  0.41513284    -0.02400
C2507       C  0.63788478  0.34745055  0.40102613     0.07600
C2508       C  0.66166006  0.36110659  0.40674051    -0.02600
Br2509     Br  0.66948546  0.39508841  0.39166318    -0.01100
Br2510     Br  0.71079805  0.37030525  0.43497587    -0.01200
Br2511     Br  0.59778977  0.30830761  0.41534853    -0.01100
Br2512     Br  0.64547156  0.27868916  0.44821543    -0.01100
C2513       C  0.84686045  0.31558944  0.56791886    -0.02200
C2514       C  0.82107641  0.32546677  0.57084897     0.07400
C2515       C  0.81620473  0.34476925  0.59034566    -0.02400
C2516       C  0.83691693  0.35445779  0.60632058    -0.02400
C2517       C  0.86304559  0.34575241  0.60242563     0.07600
C2518       C  0.86767930  0.32546933  0.58367543    -0.02600
Br2519     Br  0.90255139  0.31090879  0.57905531    -0.01100
Br2520     Br  0.85402664  0.28949926  0.54113157    -0.01200
Br2521     Br  0.82873480  0.37748932  0.63539815    -0.01100
Br2522     Br  0.78075760  0.35734175  0.59590293    -0.01100
C2523       C  0.67670965  0.37964189  0.55664226    -0.02200
C2524       C  0.69427395  0.35945253  0.56373224     0.07400
C2525       C  0.69397643  0.34927691  0.58959059    -0.02400
C2526       C  0.67749995  0.36050822  0.60876411    -0.02400
C2527       C  0.66087822  0.38195836  0.60227861     0.07600
C2528       C  0.65948121  0.39030713  0.57565710    -0.02600
Br2529     Br  0.63300806  0.41466128  0.56423124    -0.01100
Br2530     Br  0.67560195  0.39178481  0.52048871    -0.01200
Br2531     Br  0.67620092  0.34446940  0.64319349    -0.01100
Br2532     Br  0.71622931  0.31967143  0.59876266    -0.01100
C2533       C  0.82420034  0.37012277  0.44648919    -0.02200
C2534       C  0.80066026  0.35760790  0.43874410     0.07400
C2535       C  0.79458112  0.35528515  0.41162924    -0.02400
C2536       C  0.81127459  0.36628636  0.39256828    -0.02400
C2537       C  0.83354233  0.38124603  0.40025033     0.07600
C2538       C  0.84074369  0.38178569  0.42734379    -0.02600
Br2539     Br  0.87339601  0.39717870  0.43900538    -0.01100
Br2540     Br  0.83448291  0.36996991  0.48328342    -0.01200
Br2541     Br  0.80436789  0.35871616  0.35571604    -0.01100
Br2542     Br  0.76284178  0.33753246  0.40007755    -0.01100
C2543       C  0.19935975  0.91414180  0.66605504    -0.02200
C2544       C  0.19001155  0.93990181  0.67039119     0.07400
C2545       C  0.17067231  0.95037644  0.65313138    -0.02400
C2546       C  0.16097854  0.93538859  0.63179059    -0.02400
C2547       C  0.16949415  0.90913856  0.62792299     0.07600
C2548       C  0.18889511  0.89862881  0.64536367    -0.02600
Br2549     Br  0.20070240  0.86246358  0.64257155    -0.01100
Br2550     Br  0.22765648  0.90046219  0.68765079    -0.01200
Br2551     Br  0.13725235  0.95221395  0.60715663    -0.01100
Br2552     Br  0.15617374  0.98515849  0.65901543    -0.01100
C2553       C  0.10529520  0.84286850  0.64388500    -0.02200
C2554       C  0.10303358  0.84555911  0.61633375     0.07400
C2555       C  0.08190162  0.83303646  0.60306137    -0.02400
C2556       C  0.06338598  0.81794195  0.61717348    -0.02400
C2557       C  0.06636058  0.81421926  0.64462604     0.07600
C2558       C  0.08744190  0.82693607  0.65791793    -0.02600
Br2559     Br  0.09334865  0.82164984  0.69524970    -0.01100
Br2560     Br  0.13335254  0.86030014  0.66257775    -0.01200
Br2561     Br  0.03301456  0.80393087  0.59886894    -0.01100
Br2562     Br  0.07710207  0.83748651  0.56556635    -0.01100
C2563       C  0.11529642  0.93520021  0.54008340    -0.02200
C2564       C  0.10633637  0.91654914  0.55903437     0.07400
C2565       C  0.07919793  0.91644121  0.56568166    -0.02400
C2566       C  0.06120227  0.93178194  0.55114326    -0.02400
C2567       C  0.07016706  0.94980938  0.53201663     0.07600
C2568       C  0.09730535  0.95201879  0.52705168    -0.02600
Br2569     Br  0.10987522  0.97925216  0.50360814    -0.01100
Br2570     Br  0.15252462  0.93996245  0.53367103    -0.01200
Br2571     Br  0.02371047  0.92713284  0.55660977    -0.01100
Br2572     Br  0.06550869  0.89735142  0.59551028    -0.01100
C2573       C  0.12365994  0.06133319  0.68456688    -0.02200
C2574       C  0.14905835  0.06524759  0.69509235     0.07400
C2575       C  0.16097142  0.09027430  0.69291138    -0.02400
C2576       C  0.14854006  0.11058491  0.67872402    -0.02400
C2577       C  0.12460079  0.10574111  0.66548267     0.07600
C2578       C  0.11121175  0.08175025  0.67033920    -0.02600
Br2579     Br  0.07460143  0.07784801  0.66072014    -0.01100
Br2580     Br  0.10564803  0.02829470  0.68988577    -0.01200
Br2581     Br  0.16238739  0.14602473  0.68089723    -0.01100
Br2582     Br  0.19313464  0.09772497  0.71172446    -0.01100
C2583       C  0.07720517  0.08894164  0.58830651    -0.02200
C2584       C  0.06804707  0.11509708  0.59364494     0.07400
C2585       C  0.04646861  0.12464537  0.57833767    -0.02400
C2586       C  0.03200042  0.10759054  0.56175144    -0.02400
C2587       C  0.03992711  0.08126591  0.55851385     0.07600
C2588       C  0.06327572  0.07250598  0.57066991    -0.02600
Br2589     Br  0.07719021  0.03800463  0.56161013    -0.01100
Br2590     Br  0.10866240  0.07364966  0.60352471    -0.01200
Br2591     Br  0.00073261  0.12021378  0.54397609    -0.01100
Br2592     Br  0.03799499  0.16175796  0.57703182    -0.01100
C2593       C  0.06275140  0.20951588  0.67000297    -0.02200
C2594       C  0.06310797  0.18154493  0.67027047     0.07400
C2595       C  0.04896879  0.16876657  0.69085047    -0.02400
C2596       C  0.04096131  0.18289905  0.71332209    -0.02400
C2597       C  0.04479638  0.21032032  0.71469288     0.07600
C2598       C  0.05528330  0.22365959  0.69275098    -0.02600
Br2599     Br  0.05818733  0.26158313  0.69322275    -0.01100
Br2600     Br  0.06359652  0.22877505  0.63723029    -0.01200
Br2601     Br  0.02655403  0.16414589  0.74320235    -0.01100
Br2602     Br  0.03902539  0.13210482  0.68829799    -0.01100
C2603       C  0.08060216  0.06906859  0.43399506    -0.02200
C2604       C  0.06178854  0.05145292  0.42386842     0.07400
C2605       C  0.05855872  0.04928423  0.39634310    -0.02400
C2606       C  0.07520998  0.06351407  0.37902352    -0.02400
C2607       C  0.09484763  0.08082045  0.38908339     0.07600
C2608       C  0.09574717  0.08486215  0.41691688    -0.02600
Br2609     Br  0.11477714  0.11334861  0.43317886    -0.01100
Br2610     Br  0.08601528  0.07106401  0.47189735    -0.01200
Br2611     Br  0.06851042  0.06152001  0.34156049    -0.01100
Br2612     Br  0.03021278  0.02801869  0.38255100    -0.01100
C2613       C  0.19864810  0.04123358  0.31115681    -0.02200
C2614       C  0.21225617  0.05482099  0.29120315     0.07400
C2615       C  0.20430513  0.08047375  0.28437520    -0.02400
C2616       C  0.18371503  0.09301742  0.29828506    -0.02400
C2617       C  0.16901071  0.07926510  0.31823758     0.07600
C2618       C  0.17875736  0.05383738  0.32583367    -0.02600
Br2619     Br  0.17135546  0.03777004  0.35978646    -0.01100
Br2620     Br  0.20745184  0.00481001  0.31872523    -0.01200
Br2621     Br  0.18131489  0.13083388  0.29310378    -0.01100
Br2622     Br  0.22350319  0.09973630  0.25746598    -0.01100
C2623       C  0.89463448  0.84974873  0.67697653    -0.02200
C2624       C  0.90458193  0.87034101  0.66097925     0.07400
C2625       C  0.93164528  0.87048975  0.65482385    -0.02400
C2626       C  0.94876554  0.85135328  0.66570112    -0.02400
C2627       C  0.93904755  0.83152810  0.68302913     0.07600
C2628       C  0.91169295  0.83087230  0.68835288    -0.02600
Br2629     Br  0.89714608  0.80508536  0.71236883    -0.01100
Br2630     Br  0.85711892  0.84580607  0.68164263    -0.01200
Br2631     Br  0.98548586  0.85231057  0.65539562    -0.01100
Br2632     Br  0.94574621  0.89679214  0.63132937    -0.01100
C2633       C  0.90250296  0.93770286  0.57423550    -0.02200
C2634       C  0.90442376  0.94255379  0.60175899     0.07400
C2635       C  0.92333013  0.96110578  0.61073081    -0.02400
C2636       C  0.93837242  0.97587529  0.59254496    -0.02400
C2637       C  0.93615324  0.97116029  0.56506529     0.07600
C2638       C  0.91866295  0.95134634  0.55618294    -0.02600
Br2639     Br  0.91770743  0.94117664  0.51923814    -0.01100
Br2640     Br  0.87749133  0.91303393  0.55999472    -0.01200
Br2641     Br  0.96121983  0.00336077  0.60579065    -0.01100
Br2642     Br  0.93059946  0.96515043  0.64810348    -0.01100
C2643       C  0.82126963  0.96614710  0.66483890    -0.02200
C2644       C  0.83545168  0.94409759  0.67574802     0.07400
C2645       C  0.82724253  0.93517062  0.70139227    -0.02400
C2646       C  0.80883438  0.94966142  0.71634091    -0.02400
C2647       C  0.79436557  0.97011858  0.70460653     0.07600
C2648       C  0.80024256  0.97787300  0.67863959    -0.02600
Br2649     Br  0.77725352  0.00265368  0.66039761    -0.01100
Br2650     Br  0.82749542  0.98065100  0.62998321    -0.01200
Br2651     Br  0.80281083  0.94086296  0.75315669    -0.01100
Br2652     Br  0.83481539  0.90071258  0.71559554    -0.01100
C2653       C  0.92051721  0.10722527  0.41961081    -0.02200
C2654       C  0.89403555  0.11021291  0.42849089     0.07400
C2655       C  0.88517915  0.09336175  0.44905827    -0.02400
C2656       C  0.90286977  0.07690206  0.46278882    -0.02400
C2657       C  0.92945103  0.07569034  0.45520177     0.07600
C2658       C  0.93803254  0.09035686  0.43316747    -0.02600
Br2659     Br  0.97386629  0.08625065  0.42045776    -0.01100
Br2660     Br  0.93413350  0.12411945  0.38831340    -0.01200
Br2661     Br  0.89068727  0.05672547  0.49278794    -0.01100
Br2662     Br  0.84819201  0.08960447  0.45654312    -0.01100
C2663       C  0.80870983  0.20367221  0.41798957    -0.02200
C2664       C  0.82109457  0.18279346  0.43208867     0.07400
C2665       C  0.81645174  0.18130170  0.45964487    -0.02400
C2666       C  0.80578742  0.20302286  0.47333980    -0.02400
C2667       C  0.79587352  0.22508039  0.45929388     0.07600
C2668       C  0.79777616  0.22524106  0.43141270    -0.02600
Br2669     Br  0.78875560  0.25630322  0.41088680    -0.01100
Br2670     Br  0.80483367  0.20278911  0.37992726    -0.01200
Br2671     Br  0.80595329  0.20189181  0.51152839    -0.01100
Br2672     Br  0.81634171  0.14790881  0.47781134    -0.01100
C2673       C  0.94482347  0.92549176  0.39125130    -0.02200
C2674       C  0.93860770  0.90042459  0.40175575     0.07400
C2675       C  0.94998159  0.89305059  0.42618212    -0.02400
C2676       C  0.96215980  0.91221665  0.44229520    -0.02400
C2677       C  0.96506337  0.93822862  0.43304505     0.07600
C2678       C  0.95747026  0.94447935  0.40707469    -0.02600
Br2679     Br  0.96500406  0.97905192  0.39309801    -0.01100
Br2680     Br  0.93932696  0.93310597  0.35434215    -0.01200
Br2681     Br  0.97512780  0.90291214  0.47688393    -0.01100
Br2682     Br  0.95209875  0.85633979  0.43597984    -0.01100
C2683       C  0.94046767  0.80380664  0.33270636    -0.02200
C2684       C  0.93749540  0.83173093  0.33147387     0.07400
C2685       C  0.95217565  0.84522119  0.31158492    -0.02400
C2686       C  0.96411547  0.83134661  0.29081230    -0.02400
C2687       C  0.96252451  0.80378101  0.28976149     0.07600
C2688       C  0.95138534  0.78995617  0.31108799    -0.02600
Br2689     Br  0.95284749  0.75192290  0.31141151    -0.01100
Br2690     Br  0.93748670  0.78465377  0.36557223    -0.01200
Br2691     Br  0.98171636  0.85051241  0.26286214    -0.01100
Br2692     Br  0.95816375  0.88279396  0.31265727    -0.01100
C2693       C  0.66044025  0.70459735  0.44062628    -0.02200
C2694       C  0.67251983  0.68108621  0.43144053     0.07400
C2695       C  0.70001082  0.67826277  0.43538955    -0.02400
C2696       C  0.71549034  0.70017463  0.44246498    -0.02400
C2697       C  0.70336586  0.72407722  0.44992941     0.07600
C2698       C  0.67577422  0.72648005  0.44737827    -0.02600
Br2699     Br  0.65853055  0.76050322  0.45002884    -0.01100
Br2700     Br  0.62318352  0.70646809  0.44861880    -0.01200
Br2701     Br  0.75318240  0.69710491  0.43969389    -0.01100
Br2702     Br  0.71579773  0.64379629  0.43928084    -0.01100
C2703       C  0.79330133  0.69355662  0.53637913    -0.02200
C2704       C  0.78892161  0.71790614  0.54925779     0.07400
C2705       C  0.79385349  0.71945640  0.57678837    -0.02400
C2706       C  0.80530704  0.69803334  0.59005665    -0.02400
C2707       C  0.81542279  0.67634165  0.57570472     0.07600
C2708       C  0.80550583  0.67248792  0.54985964    -0.02600
Br2709     Br  0.80093010  0.63730260  0.53589175    -0.01100
Br2710     Br  0.78094702  0.68783454  0.50093424    -0.01200
Br2711     Br  0.80346360  0.69729013  0.62812528    -0.01100
Br2712     Br  0.78684601  0.75104581  0.59712658    -0.01100
C2713       C  0.64903191  0.80595512  0.57077894    -0.02200
C2714       C  0.67379741  0.81801769  0.56795914     0.07400
C2715       C  0.67846978  0.84257076  0.58005192    -0.02400
C2716       C  0.65880108  0.85477644  0.59543542    -0.02400
C2717       C  0.63437746  0.84186647  0.60001057     0.07600
C2718       C  0.62934040  0.81786246  0.58638574    -0.02600
Br2719     Br  0.59462831  0.80215005  0.58653180    -0.01100
Br2720     Br  0.64242354  0.77246672  0.55391677    -0.01200
Br2721     Br  0.66631563  0.88959893  0.60860488    -0.01100
Br2722     Br  0.71183573  0.86023088  0.57453930    -0.01100
C2723       C  0.82413097  0.81270887  0.41005173    -0.02200
C2724       C  0.82407277  0.81922999  0.43704854     0.07400
C2725       C  0.84373215  0.83611463  0.44697514    -0.02400
C2726       C  0.86301419  0.84689839  0.43006081    -0.02400
C2727       C  0.86386002  0.83998239  0.40287455     0.07600
C2728       C  0.84388429  0.82278187  0.39307926    -0.02600
Br2729     Br  0.84145801  0.81423715  0.35604007    -0.01100
Br2730     Br  0.79592005  0.79126874  0.39608697    -0.01200
Br2731     Br  0.88762580  0.87132368  0.44529154    -0.01100
Br2732     Br  0.84457845  0.84392466  0.48444824    -0.01100
C2733       C  0.80043295  0.88250687  0.56571508    -0.02200
C2734       C  0.80390430  0.85524544  0.56207170     0.07400
C2735       C  0.82466815  0.84216245  0.57539498    -0.02400
C2736       C  0.84038408  0.85577041  0.59386109    -0.02400
C2737       C  0.83584696  0.88275215  0.59883766     0.07600
C2738       C  0.81660577  0.89620457  0.58355867    -0.02600
Br2739     Br  0.81334752  0.93395065  0.58487867    -0.01100
Br2740     Br  0.77272556  0.90138377  0.54735178    -0.01200
Br2741     Br  0.86755438  0.83670932  0.61236390    -0.01100
Br2742     Br  0.83259149  0.80566840  0.56767357    -0.01100
C2743       C  0.69574224  0.84740970  0.41634681    -0.02200
C2744       C  0.69506430  0.85654794  0.44252541     0.07400
C2745       C  0.67782796  0.87691705  0.44966950    -0.02400
C2746       C  0.66148032  0.88855962  0.43040750    -0.02400
C2747       C  0.66328982  0.88069303  0.40363954     0.07600
C2748       C  0.68023237  0.85960567  0.39693215    -0.02600
Br2749     Br  0.68115289  0.84563748  0.36162020    -0.01100
Br2750     Br  0.71797379  0.81780937  0.40716420    -0.01200
Br2751     Br  0.63637763  0.91441725  0.44155495    -0.01100
Br2752     Br  0.67605149  0.88798090  0.48614411    -0.01100
C2753       C  0.68620976  0.97460265  0.30382500    -0.02200
C2754       C  0.70852573  0.96005116  0.29628917     0.07400
C2755       C  0.70771889  0.93245211  0.29757300    -0.02400
C2756       C  0.68582340  0.91968607  0.30881353    -0.02400
C2757       C  0.66490979  0.93449801  0.32021153     0.07600
C2758       C  0.66366296  0.96165405  0.31356090    -0.02600
Br2759     Br  0.63027089  0.97918457  0.30838942    -0.01100
Br2760     Br  0.68620149  0.01233034  0.30032382    -0.01200
Br2761     Br  0.68420102  0.88194973  0.30603294    -0.01100
Br2762     Br  0.73755670  0.91214487  0.28545364    -0.01100
C2763       C  0.68957532  0.05957092  0.21443508    -0.02200
C2764       C  0.71210078  0.04919683  0.20216800     0.07400
C2765       C  0.71264779  0.04650631  0.17454062    -0.02400
C2766       C  0.69155356  0.05580893  0.15916153    -0.02400
C2767       C  0.66997767  0.06899690  0.17128957     0.07600
C2768       C  0.66768508  0.06705933  0.19914164    -0.02600
Br2769     Br  0.63359058  0.06534529  0.21597413    -0.01100
Br2770     Br  0.68821184  0.06308448  0.25227626    -0.01200
Br2771     Br  0.69218631  0.04833559  0.12172863    -0.01100
Br2772     Br  0.74323127  0.03160562  0.15746499    -0.01100
C2773       C  0.84131005  0.10743602  0.33720594    -0.02200
C2774       C  0.83113325  0.11057678  0.36322517     0.07400
C2775       C  0.80958319  0.09431233  0.37098843    -0.02400
C2776       C  0.79723787  0.07736721  0.35267670    -0.02400
C2777       C  0.80659335  0.07561416  0.32665395     0.07600
C2778       C  0.82897929  0.09020257  0.31918074    -0.02600
Br2779     Br  0.84387559  0.08542793  0.28424447    -0.01100
Br2780     Br  0.87226027  0.12561631  0.32475352    -0.01200
Br2781     Br  0.76685446  0.05690085  0.36302924    -0.01100
Br2782     Br  0.79773886  0.09271215  0.40723498    -0.01100
C2783       C  0.83513720  0.92662721  0.18569152    -0.02200
C2784       C  0.81268648  0.94249156  0.18148807     0.07400
C2785       C  0.80061643  0.94250590  0.15637021    -0.02400
C2786       C  0.81136398  0.92751413  0.13544218    -0.02400
C2787       C  0.83393126  0.91136284  0.13962948     0.07600
C2788       C  0.84537497  0.91094237  0.16520629    -0.02600
Br2789     Br  0.87435215  0.88809706  0.17387763    -0.01100
Br2790     Br  0.85195842  0.92557038  0.22005808    -0.01200
Br2791     Br  0.79551126  0.93106638  0.10081240    -0.01100
Br2792     Br  0.77007291  0.96427289  0.15000873    -0.01100
C2793       C  0.86993268  0.93257179  0.34897391    -0.02200
C2794       C  0.87048876  0.90591873  0.34004800     0.07400
C2795       C  0.85460438  0.89944478  0.31773427    -0.02400
C2796       C  0.84138544  0.91928255  0.30336535    -0.02400
C2797       C  0.84534765  0.94596955  0.30953422     0.07600
C2798       C  0.85885759  0.95250385  0.33286005    -0.02600
Br2799     Br  0.86096664  0.98909663  0.34318672    -0.01100
Br2800     Br  0.88079943  0.94289497  0.38399442    -0.01200
Br2801     Br  0.81580026  0.90989089  0.27667852    -0.01100
Br2802     Br  0.84823549  0.86328705  0.30774655    -0.01100
C2803       C  0.87445563  0.07345815  0.20310965    -0.02200
C2804       C  0.84688628  0.07086764  0.20107003     0.07400
C2805       C  0.83348262  0.08564787  0.18126413    -0.02400
C2806       C  0.84704597  0.10452663  0.16587864    -0.02400
C2807       C  0.87452277  0.10747254  0.16845186     0.07600
C2808       C  0.88814193  0.09014882  0.18567299    -0.02600
Br2809     Br  0.92556603  0.08578825  0.18289274    -0.01100
Br2810     Br  0.89396804  0.05587683  0.23083939    -0.01200
Br2811     Br  0.82752501  0.12634428  0.14159543    -0.01100
Br2812     Br  0.79662799  0.07957830  0.17378067    -0.01100
C2813       C  0.03749048  0.33976721  0.20688866    -0.02200
C2814       C  0.03719082  0.31191503  0.20750469     0.07400
C2815       C  0.04353513  0.29790680  0.18421723    -0.02400
C2816       C  0.05432799  0.31133168  0.16233838    -0.02400
C2817       C  0.05913597  0.33874455  0.16387476     0.07600
C2818       C  0.04609463  0.35287709  0.18416015    -0.02600
Br2819     Br  0.03906476  0.39018881  0.18101464    -0.01100
Br2820     Br  0.02865112  0.36093605  0.23750453    -0.01200
Br2821     Br  0.05560861  0.29332761  0.12889396    -0.01100
Br2822     Br  0.03568593  0.26073442  0.18129152    -0.01100
C2823       C  0.95282014  0.17280930  0.18999878    -0.02200
C2824       C  0.93893503  0.18372683  0.16831262     0.07400
C2825       C  0.94269894  0.21102299  0.16323765    -0.02400
C2826       C  0.95315460  0.22743196  0.18319406    -0.02400
C2827       C  0.96161515  0.21634140  0.20723576     0.07600
C2828       C  0.96199410  0.18893558  0.21033546    -0.02600
Br2829     Br  0.97360156  0.17319948  0.24321241    -0.01100
Br2830     Br  0.96436813  0.13688558  0.19009658    -0.01200
Br2831     Br  0.95699852  0.26478058  0.17733293    -0.01100
Br2832     Br  0.94117061  0.22478262  0.12765038    -0.01100
C2833       C  0.06656564  0.16922170  0.29966206    -0.02200
C2834       C  0.06567644  0.19391093  0.31229949     0.07400
C2835       C  0.08129832  0.19797832  0.33501870    -0.02400
C2836       C  0.09756001  0.17768870  0.34514012    -0.02400
C2837       C  0.09908298  0.15276581  0.33226721     0.07600
C2838       C  0.08249916  0.14866077  0.30982344    -0.02600
Br2839     Br  0.07837969  0.11415155  0.29418623    -0.01100
Br2840     Br  0.04467447  0.16297866  0.26899924    -0.01200
Br2841     Br  0.11681179  0.18548261  0.37705466    -0.01100
Br2842     Br  0.08137577  0.23223678  0.35187595    -0.01100
C2843       C  0.93106979  0.36153584  0.30019629    -0.02200
C2844       C  0.92930258  0.33482983  0.30778278     0.07400
C2845       C  0.91197589  0.32759136  0.32831330    -0.02400
C2846       C  0.89617303  0.34677048  0.34077119    -0.02400
C2847       C  0.89781367  0.37355030  0.33318016     0.07600
C2848       C  0.91578143  0.38081469  0.31302710    -0.02600
Br2849     Br  0.92094732  0.41742678  0.30359503    -0.01100
Br2850     Br  0.95392138  0.37183757  0.27144121    -0.01200
Br2851     Br  0.87191236  0.33557235  0.36771220    -0.01100
Br2852     Br  0.91084199  0.29152292  0.34061504    -0.01100
C2853       C  0.88872864  0.19141037  0.34439618    -0.02200
C2854       C  0.89559987  0.18039260  0.36896936     0.07400
C2855       C  0.91967750  0.18758185  0.38078873    -0.02400
C2856       C  0.93892841  0.20102236  0.36610715    -0.02400
C2857       C  0.93262301  0.21156439  0.34089908     0.07600
C2858       C  0.90693129  0.20694469  0.33037316    -0.02600
Br2859     Br  0.89479043  0.22269770  0.29756547    -0.01100
Br2860     Br  0.85289211  0.18861107  0.33166402    -0.01200
Br2861     Br  0.97402917  0.20309913  0.38086032    -0.01100
Br2862     Br  0.92483353  0.18284467  0.41841311    -0.01100
C2863       C  0.10104533  0.32884541  0.35325141    -0.02200
C2864       C  0.09362372  0.34639444  0.37366877     0.07400
C2865       C  0.06658386  0.35094783  0.37847329    -0.02400
C2866       C  0.04738515  0.33677717  0.36429978    -0.02400
C2867       C  0.05513549  0.31827499  0.34523976     0.07600
C2868       C  0.08184347  0.31499084  0.33903003    -0.02600
Br2869     Br  0.09206366  0.29165564  0.31060103    -0.01100
Br2870     Br  0.13731333  0.32482754  0.34298642    -0.01200
Br2871     Br  0.01036318  0.34344054  0.36989007    -0.01100
Br2872     Br  0.05523379  0.37619879  0.40427415    -0.01100
C2873       C  0.78694131  0.58563700  0.19823302    -0.02200
C2874       C  0.78690514  0.55857408  0.20392786     0.07400
C2875       C  0.81006497  0.54386547  0.20028744    -0.02400
C2876       C  0.83227271  0.55562659  0.18855089    -0.02400
C2877       C  0.82997851  0.58086984  0.17657372     0.07600
C2878       C  0.80804198  0.59676974  0.18415316    -0.02600
Br2879     Br  0.80660495  0.63428187  0.17685548    -0.01100
Br2880     Br  0.75836423  0.60763186  0.21031072    -0.01200
Br2881     Br  0.86617485  0.54024404  0.19665102    -0.01100
Br2882     Br  0.81206870  0.50830354  0.21380954    -0.01100
C2883       C  0.79803272  0.48285371  0.31741002    -0.02200
C2884       C  0.78925361  0.47178872  0.29334434     0.07400
C2885       C  0.79982666  0.44754847  0.28503217    -0.02400
C2886       C  0.81628270  0.43297375  0.30189102    -0.02400
C2887       C  0.82733381  0.44471676  0.32505084     0.07600
C2888       C  0.81627989  0.46919169  0.33335811    -0.02600
Br2889     Br  0.82065562  0.48248501  0.36871515    -0.01100
Br2890     Br  0.78403434  0.51615624  0.33019894    -0.01200
Br2891     Br  0.81627475  0.39528459  0.29565933    -0.01100
Br2892     Br  0.79235484  0.43394208  0.25002371    -0.01100
C2893       C  0.65817635  0.40477015  0.16418425    -0.02200
C2894       C  0.66845148  0.40432513  0.13808931     0.07400
C2895       C  0.68935679  0.42185379  0.13199869    -0.02400
C2896       C  0.70149343  0.43712467  0.15183179    -0.02400
C2897       C  0.69121672  0.43761192  0.17769548     0.07600
C2898       C  0.66900825  0.42182785  0.18352045    -0.02600
Br2899     Br  0.65167517  0.42512882  0.21736396    -0.01100
Br2900     Br  0.62907392  0.38268780  0.17443313    -0.01200
Br2901     Br  0.73286061  0.45700964  0.14329652    -0.01100
Br2902     Br  0.69954816  0.42830516  0.09589489    -0.01100
C2903       C  0.66999530  0.56256634  0.34266644    -0.02200
C2904       C  0.68557674  0.57316738  0.32233490     0.07400
C2905       C  0.69119603  0.60026265  0.32232763    -0.02400
C2906       C  0.68119009  0.61673671  0.34247601    -0.02400
C2907       C  0.66449886  0.60638174  0.36268022     0.07600
C2908       C  0.65850426  0.57905245  0.36188420    -0.02600
Br2909     Br  0.63417936  0.56297536  0.38605790    -0.01100
Br2910     Br  0.66589687  0.52477633  0.34511886    -0.01200
Br2911     Br  0.68941523  0.65379854  0.34012099    -0.01100
Br2912     Br  0.71157667  0.61505631  0.29367644    -0.01100
C2913       C  0.66866506  0.58775717  0.17376279    -0.02200
C2914       C  0.65393673  0.56879581  0.18828338     0.07400
C2915       C  0.62618265  0.57029628  0.18821327    -0.02400
C2916       C  0.61349012  0.59169952  0.17605042    -0.02400
C2917       C  0.62841235  0.61137121  0.16309549     0.07600
C2918       C  0.65585996  0.60908049  0.16158970    -0.02600
Br2919     Br  0.67619282  0.63610870  0.14418071    -0.01100
Br2920     Br  0.70649280  0.58574106  0.17012897    -0.01200
Br2921     Br  0.57538244  0.59301915  0.17584975    -0.01100
Br2922     Br  0.60511973  0.54202728  0.20268644    -0.01100
C2923       C  0.61596134  0.43947315  0.33366619    -0.02200
C2924       C  0.62561446  0.41358836  0.33635679     0.07400
C2925       C  0.64809781  0.40600276  0.32205040    -0.02400
C2926       C  0.65944166  0.42311524  0.30353219    -0.02400
C2927       C  0.64962583  0.44914408  0.30030175     0.07600
C2928       C  0.62760030  0.45713708  0.31546745    -0.02600
Br2929     Br  0.61262314  0.49183985  0.31132887    -0.01100
Br2930     Br  0.58727874  0.45096488  0.35553863    -0.01200
Br2931     Br  0.68705888  0.40905288  0.28111987    -0.01100
Br2932     Br  0.66411339  0.37203303  0.32821323    -0.01100
C2933       C  0.30320932  0.34499020  0.54827850    -0.02200
C2934       C  0.31438506  0.34153447  0.57368595     0.07400
C2935       C  0.30629395  0.31895024  0.58813065    -0.02400
C2936       C  0.29593509  0.29694429  0.57494065    -0.02400
C2937       C  0.28943188  0.29869475  0.54786139     0.07600
C2938       C  0.29113949  0.32350446  0.53523588    -0.02600
Br2939     Br  0.27534688  0.32869794  0.50086398    -0.01100
Br2940     Br  0.29856266  0.37994023  0.53408381    -0.01200
Br2941     Br  0.29300100  0.26405492  0.59416185    -0.01100
Br2942     Br  0.30776101  0.31806117  0.62620962    -0.01100
C2943       C  0.19160272  0.32389018  0.41636801    -0.02200
C2944       C  0.17269451  0.33829448  0.43181729     0.07400
C2945       C  0.16945981  0.33009834  0.45857416    -0.02400
C2946       C  0.18746034  0.31287205  0.47055005    -0.02400
C2947       C  0.20535729  0.29871175  0.45511332     0.07600
C2948       C  0.20744816  0.30415744  0.42803592    -0.02600
Br2949     Br  0.23053813  0.28271125  0.40644728    -0.01100
Br2950     Br  0.19457724  0.32706586  0.37839640    -0.01200
Br2951     Br  0.18682837  0.30774381  0.50850768    -0.01100
Br2952     Br  0.13686780  0.33344308  0.47731724    -0.01100
C2953       C  0.36613063  0.19878840  0.41597779    -0.02200
C2954       C  0.36082125  0.17743335  0.39855787     0.07400
C2955       C  0.33484463  0.16716845  0.39784240    -0.02400
C2956       C  0.31476111  0.17852037  0.41338330    -0.02400
C2957       C  0.32031279  0.19956744  0.43079696     0.07600
C2958       C  0.34590714  0.21017787  0.43135883    -0.02600
Br2959     Br  0.35377550  0.23957828  0.45428622    -0.01100
Br2960     Br  0.40177036  0.21048249  0.42212688    -0.01200
Br2961     Br  0.27893012  0.16579177  0.40988580    -0.01100
Br2962     Br  0.32577889  0.13696477  0.37671570    -0.01100
C2963       C  0.16245607  0.16392405  0.59786537    -0.02200
C2964       C  0.13656406  0.17427769  0.59990607     0.07400
C2965       C  0.12963121  0.19584088  0.58334551    -0.02400
C2966       C  0.14861326  0.20832248  0.56733026    -0.02400
C2967       C  0.17447432  0.19853231  0.56623967     0.07600
C2968       C  0.18121823  0.17615684  0.58138200    -0.02600
Br2969     Br  0.21619381  0.16124642  0.57870702    -0.01100
Br2970     Br  0.17321195  0.13245030  0.61625038    -0.01200
Br2971     Br  0.13940324  0.23965534  0.54764721    -0.01100
Br2972     Br  0.09347838  0.20658993  0.57939628    -0.01100
C2973       C  0.33770488  0.15742620  0.59133315    -0.02200
C2974       C  0.33067867  0.13149129  0.59878085     0.07400
C2975       C  0.31014508  0.11853602  0.58474267    -0.02400
C2976       C  0.29482788  0.13239155  0.56617792    -0.02400
C2977       C  0.30087841  0.15878170  0.56014795     0.07600
C2978       C  0.32320981  0.17069162  0.57168597    -0.02600
Br2979     Br  0.33473030  0.20503400  0.55969294    -0.01100
Br2980     Br  0.36637331  0.17595318  0.60800875    -0.01200
Br2981     Br  0.26481633  0.11528033  0.55010609    -0.01100
Br2982     Br  0.30398336  0.08107033  0.58891192    -0.01100
C2983       C  0.19375997  0.17352890  0.41129376    -0.02200
C2984       C  0.19828464  0.16058788  0.43561962     0.07400
C2985       C  0.19072511  0.13406809  0.43859886    -0.02400
C2986       C  0.17688814  0.12139574  0.41813349    -0.02400
C2987       C  0.16829667  0.13591902  0.39587377     0.07600
C2988       C  0.17943722  0.16088559  0.39120044    -0.02600
Br2989     Br  0.17919312  0.17566010  0.35596447    -0.01100
Br2990     Br  0.20891084  0.20780731  0.40456774    -0.01200
Br2991     Br  0.17282936  0.08353676  0.41917106    -0.01100
Br2992     Br  0.19851920  0.11518869  0.47078119    -0.01100
C2993       C  0.45905296  0.17290930  0.31899517    -0.02200
C2994       C  0.44068062  0.18549498  0.33591289     0.07400
C2995       C  0.43836034  0.21314809  0.33372428    -0.02400
C2996       C  0.44576499  0.22595991  0.31024330    -0.02400
C2997       C  0.46134843  0.21255915  0.29124887     0.07600
C2998       C  0.47018754  0.18667133  0.29756674    -0.02600
Br2999     Br  0.49840954  0.16948614  0.27829723    -0.01100
Br3000     Br  0.46935332  0.13656756  0.32455637    -0.01200
Br3001     Br  0.43307756  0.26156278  0.30524914    -0.01100
Br3002     Br  0.43408477  0.23476984  0.36473184    -0.01100
C3003       C  0.57064521  0.31488784  0.28171391    -0.02200
C3004       C  0.54603912  0.30328096  0.28631883     0.07400
C3005       C  0.53578282  0.30295719  0.31219302    -0.02400
C3006       C  0.54904343  0.31638036  0.33281055    -0.02400
C3007       C  0.57224437  0.33109340  0.32727863     0.07600
C3008       C  0.58460390  0.32641382  0.30255776    -0.02600
Br3009     Br  0.62186715  0.33106458  0.29757256    -0.01100
Br3010     Br  0.58486539  0.31673487  0.24634876    -0.01200
Br3011     Br  0.53840821  0.30910269  0.36872312    -0.01100
Br3012     Br  0.50443220  0.28279936  0.31961798    -0.01100
C3013       C  0.57479483  0.14829374  0.15401529    -0.02200
C3014       C  0.60083615  0.14359655  0.16333447     0.07400
C3015       C  0.61033967  0.16002262  0.18427222    -0.02400
C3016       C  0.59357263  0.17834340  0.19699782    -0.02400
C3017       C  0.56749553  0.18193783  0.18826322     0.07600
C3018       C  0.55849471  0.16711692  0.16643164    -0.02600
Br3019     Br  0.52363743  0.17327526  0.15236781    -0.01100
Br3020     Br  0.55993336  0.13008011  0.12402029    -0.01200
Br3021     Br  0.60609289  0.19773171  0.22741732    -0.01100
Br3022     Br  0.64705218  0.16036548  0.19452888    -0.01100
C3023       C  0.39975755  0.34139116  0.15411928    -0.02200
C3024       C  0.39812897  0.36673512  0.16596208     0.07400
C3025       C  0.41471337  0.37198630  0.18803410    -0.02400
C3026       C  0.43206180  0.35251314  0.19802120    -0.02400
C3027       C  0.43336868  0.32747626  0.18612427     0.07600
C3028       C  0.41666666  0.32188214  0.16455266    -0.02600
Br3029     Br  0.41597729  0.28660067  0.14990026    -0.01100
Br3030     Br  0.37959371  0.33209832  0.12331116    -0.01200
Br3031     Br  0.45528290  0.36074299  0.22714779    -0.01100
Br3032     Br  0.41650122  0.40674446  0.20317013    -0.01100
C3033       C  0.61193664  0.32195127  0.14446911    -0.02200
C3034       C  0.60384433  0.33703499  0.12256388     0.07400
C3035       C  0.57887337  0.33209922  0.11137403    -0.02400
C3036       C  0.56000645  0.31724102  0.12531399    -0.02400
C3037       C  0.56709206  0.30440719  0.14922082     0.07600
C3038       C  0.59384278  0.30559151  0.15765072    -0.02600
Br3039     Br  0.60730742  0.28292526  0.18539429    -0.01100
Br3040     Br  0.64886141  0.32088080  0.15420871    -0.01200
Br3041     Br  0.52479983  0.31512379  0.11083892    -0.01100
Br3042     Br  0.57187666  0.34186263  0.07509918    -0.01100
C3043       C  0.44616975  0.19114619  0.12421069    -0.02200
C3044       C  0.44031742  0.20444232  0.14784087     0.07400
C3045       C  0.41491287  0.20239875  0.15877380    -0.02400
C3046       C  0.39542061  0.18744525  0.14591907    -0.02400
C3047       C  0.40161760  0.17289255  0.12289970     0.07600
C3048       C  0.42745534  0.17410412  0.11282039    -0.02600
Br3049     Br  0.43797133  0.15182475  0.08417126    -0.01100
Br3050     Br  0.47925721  0.19706406  0.10667152    -0.01200
Br3051     Br  0.36057689  0.18645342  0.16085637    -0.01100
Br3052     Br  0.40642605  0.22127391  0.19086979    -0.01100
C3053       C  0.30323706  0.55625591  0.34211936    -0.02200
C3054       C  0.32536220  0.56848764  0.32997593     0.07400
C3055       C  0.32933915  0.56345260  0.30254876    -0.02400
C3056       C  0.30864955  0.55325081  0.28701218    -0.02400
C3057       C  0.28502782  0.54549555  0.29903574     0.07600
C3058       C  0.28284251  0.54580483  0.32663049    -0.02600
Br3059     Br  0.25150197  0.53197430  0.34334421    -0.01100
Br3060     Br  0.30163690  0.54912788  0.37945895    -0.01200
Br3061     Br  0.31291413  0.54855136  0.24940097    -0.01100
Br3062     Br  0.36388994  0.56538070  0.28665936    -0.01100
C3063       C  0.32815240  0.44595395  0.19882119    -0.02200
C3064       C  0.32397863  0.43780803  0.17231500     0.07400
C3065       C  0.30024201  0.44646978  0.15990791    -0.02400
C3066       C  0.27887140  0.45502329  0.17509923    -0.02400
C3067       C  0.28223933  0.46049090  0.20217561     0.07600
C3068       C  0.30730515  0.45692013  0.21373691    -0.02600
Br3069     Br  0.31376184  0.46888233  0.24941576    -0.01100
Br3070     Br  0.36312276  0.44769662  0.21332985    -0.01200
Br3071     Br  0.24462100  0.45805472  0.15829800    -0.01100
Br3072     Br  0.29747979  0.45222680  0.12212517    -0.01100
C3073       C  0.19989732  0.58038031  0.15386279    -0.02200
C3074       C  0.18700063  0.57607205  0.17797272     0.07400
C3075       C  0.16142928  0.58611059  0.18176904    -0.02400
C3076       C  0.14933872  0.60181836  0.16215466    -0.02400
C3077       C  0.16325486  0.60831799  0.13873173     0.07600
C3078       C  0.18790032  0.59581979  0.13411340    -0.02600
Br3079     Br  0.20418884  0.59680330  0.09963367    -0.01100
Br3080     Br  0.23434090  0.56528012  0.14810874    -0.01200
Br3081     Br  0.11330554  0.61232812  0.16773111    -0.01100
Br3082     Br  0.14244060  0.57704907  0.21361771    -0.01100
C3083       C  0.15859258  0.42520869  0.31632764    -0.02200
C3084       C  0.18081415  0.44121021  0.32125248     0.07400
C3085       C  0.19152051  0.44210231  0.34693198    -0.02400
C3086       C  0.18047897  0.42678690  0.36739959    -0.02400
C3087       C  0.15864817  0.40997318  0.36237945     0.07600
C3088       C  0.14728660  0.41010903  0.33676379    -0.02600
Br3089     Br  0.11600762  0.39028586  0.32860530    -0.01100
Br3090     Br  0.14389986  0.42319722  0.28098174    -0.01200
Br3091     Br  0.19382237  0.43148243  0.40296353    -0.01100
Br3092     Br  0.22022253  0.46580279  0.35467449    -0.01100
C3093       C  0.12444245  0.56761833  0.31300033    -0.02200
C3094       C  0.15210984  0.56867157  0.30914218     0.07400
C3095       C  0.16707647  0.58648261  0.32506176    -0.02400
C3096       C  0.15434421  0.60561776  0.34060484    -0.02400
C3097       C  0.12683437  0.60643493  0.34156405     0.07600
C3098       C  0.11213658  0.58602432  0.32970905    -0.02600
Br3099     Br  0.07512582  0.58239697  0.33758278    -0.01100
Br3100     Br  0.10229900  0.54201330  0.29538573    -0.01200
Br3101     Br  0.17454486  0.63106236  0.36037705    -0.01100
Br3102     Br  0.20508836  0.58485855  0.32727679    -0.01100
C3103       C  0.16056217  0.42291781  0.19466939    -0.02200
C3104       C  0.14914570  0.44821811  0.19627586     0.07400
C3105       C  0.12523491  0.45342815  0.18327811    -0.02400
C3106       C  0.11352604  0.43384420  0.16746904    -0.02400
C3107       C  0.12608122  0.40915299  0.16406247     0.07600
C3108       C  0.14834010  0.40311939  0.17965756    -0.02600
Br3109     Br  0.15983374  0.36702302  0.18379222    -0.01100
Br3110     Br  0.19239875  0.41486712  0.21410844    -0.01200
Br3111     Br  0.07871958  0.44010796  0.15346167    -0.01100
Br3112     Br  0.10875666  0.48752433  0.18677876    -0.01100
C3113       C  0.82351721  0.80629223  0.03201268    -0.02200
C3114       C  0.79919066  0.79719978  0.04187964     0.07400
C3115       C  0.78841106  0.80925936  0.06440207    -0.02400
C3116       C  0.80294656  0.82813423  0.07861589    -0.02400
C3117       C  0.82613823  0.83973134  0.06750823     0.07600
C3118       C  0.83678250  0.82726950  0.04450822    -0.02600
Br3119     Br  0.87172038  0.83476319  0.03139911    -0.01100
Br3120     Br  0.84033347  0.78877518  0.00230722    -0.01200
Br3121     Br  0.79367871  0.83058940  0.11565694    -0.01100
Br3122     Br  0.75314733  0.80042191  0.07598560    -0.01100
C3123       C  0.71208673  0.80396950  0.92561281    -0.02200
C3124       C  0.70963552  0.79852121  0.95268436     0.07400
C3125       C  0.69213241  0.81340975  0.96809480    -0.02400
C3126       C  0.67496224  0.83162730  0.95617776    -0.02400
C3127       C  0.67820019  0.83896491  0.92911900     0.07600
C3128       C  0.69649663  0.82371731  0.91376526    -0.02600
Br3129     Br  0.69888410  0.82596624  0.87555521    -0.01100
Br3130     Br  0.73566509  0.78295396  0.90407964    -0.01200
Br3131     Br  0.64383624  0.83942304  0.97650384    -0.01100
Br3132     Br  0.69173543  0.80895420  0.00616320    -0.01100
C3133       C  0.68046560  0.70769826  0.09409380    -0.02200
C3134       C  0.68102384  0.70028996  0.06726964     0.07400
C3135       C  0.66131528  0.68300523  0.05762309    -0.02400
C3136       C  0.64076623  0.67430145  0.07422487    -0.02400
C3137       C  0.64026062  0.68130456  0.10127788     0.07600
C3138       C  0.66054016  0.69803688  0.11100365    -0.02600
Br3139     Br  0.66263754  0.70725319  0.14774454    -0.01100
Br3140     Br  0.70661328  0.73185986  0.10779024    -0.01200
Br3141     Br  0.61252928  0.65415325  0.05870734    -0.01100
Br3142     Br  0.66305595  0.66939601  0.02189273    -0.01100
C3143       C  0.84727148  0.68198930  0.94146969    -0.02200
C3144       C  0.82746836  0.69901906  0.93194561     0.07400
C3145       C  0.82683543  0.70549489  0.90495807    -0.02400
C3146       C  0.84526071  0.69417656  0.88746741    -0.02400
C3147       C  0.86616886  0.67827640  0.89709208     0.07600
C3148       C  0.86695067  0.67241121  0.92442459    -0.02600
Br3149     Br  0.89475828  0.65161533  0.93955355    -0.01100
Br3150     Br  0.84739850  0.67142782  0.97818018    -0.01200
Br3151     Br  0.83883282  0.69729420  0.85018359    -0.01100
Br3152     Br  0.79940036  0.72829908  0.89164501    -0.01100
C3153       C  0.67742092  0.62016634  0.92231123    -0.02200
C3154       C  0.66203445  0.63393045  0.90345315     0.07400
C3155       C  0.66151710  0.66160387  0.90421268    -0.02400
C3156       C  0.67899092  0.67537947  0.92081115    -0.02400
C3157       C  0.69455828  0.66159958  0.93959919     0.07600
C3158       C  0.69287059  0.63389773  0.94082978    -0.02600
Br3159     Br  0.71059387  0.61439659  0.96851751    -0.01100
Br3160     Br  0.67591939  0.58233679  0.92450617    -0.01200
Br3161     Br  0.68308007  0.71292964  0.91538785    -0.01100
Br3162     Br  0.63627331  0.68098308  0.88359718    -0.01100
C3163       C  0.83587768  0.66392237  0.05883572    -0.02200
C3164       C  0.81036411  0.65481019  0.05255184     0.07400
C3165       C  0.80260934  0.62973496  0.06112629    -0.02400
C3166       C  0.81909395  0.61505943  0.07802199    -0.02400
C3167       C  0.84291404  0.62609162  0.08833794     0.07600
C3168       C  0.85268657  0.64894050  0.07536210    -0.02600
Br3169     Br  0.88949267  0.65819273  0.07532816    -0.01100
Br3170     Br  0.84792811  0.69722067  0.04474546    -0.01200
Br3171     Br  0.80942459  0.57874747  0.08415046    -0.01100
Br3172     Br  0.76816835  0.61634589  0.05173051    -0.01100
C3173       C  0.28146166  0.81701902  0.45055812    -0.02200
C3174       C  0.29549500  0.79668698  0.46323196     0.07400
C3175       C  0.32220640  0.80042982  0.46952757    -0.02400
C3176       C  0.33551060  0.82299674  0.46064398    -0.02400
C3177       C  0.32237222  0.84200539  0.44454046     0.07600
C3178       C  0.29446098  0.84044874  0.44307458    -0.02600
Br3179     Br  0.27305744  0.87168600  0.43953295    -0.01100
Br3180     Br  0.24404162  0.81340766  0.44478213    -0.01200
Br3181     Br  0.37199861  0.82697004  0.47103205    -0.01100
Br3182     Br  0.34127395  0.77366308  0.48908796    -0.01100
C3183       C  0.17557119  0.79932381  0.53399264    -0.02200
C3184       C  0.20325528  0.79789543  0.53723283     0.07400
C3185       C  0.21729512  0.82146322  0.54254860    -0.02400
C3186       C  0.20342048  0.84488600  0.54851040    -0.02400
C3187       C  0.17556341  0.84456270  0.54966127     0.07600
C3188       C  0.16265432  0.82339705  0.53712462    -0.02600
Br3189     Br  0.12754232  0.82730777  0.52331273    -0.01100
Br3190     Br  0.15382999  0.76848267  0.52793278    -0.01200
Br3191     Br  0.22200797  0.87805184  0.54699870    -0.01100
Br3192     Br  0.25526409  0.82257027  0.54006924    -0.01100
C3193       C  0.15745909  0.68132704  0.44213235    -0.02200
C3194       C  0.17751503  0.69793703  0.43195534     0.07400
C3195       C  0.17663702  0.70510340  0.40495699    -0.02400
C3196       C  0.15660015  0.69510521  0.38831417    -0.02400
C3197       C  0.13598768  0.67952046  0.39890058     0.07600
C3198       C  0.13608734  0.67380052  0.42616280    -0.02600
Br3199     Br  0.10595884  0.65762439  0.44273179    -0.01100
Br3200     Br  0.15963988  0.66645601  0.47740085    -0.01200
Br3201     Br  0.15857140  0.70201470  0.35080567    -0.01100
Br3202     Br  0.20214508  0.72939092  0.39056151    -0.01100
C3203       C  0.34267418  0.67988932  0.55860992    -0.02200
C3204       C  0.32316377  0.69650862  0.56938829     0.07400
C3205       C  0.32504287  0.70413687  0.59608627    -0.02400
C3206       C  0.34558599  0.69419563  0.61221415    -0.02400
C3207       C  0.36514285  0.67726187  0.60145129     0.07600
C3208       C  0.36352807  0.67049529  0.57440192    -0.02600
Br3209     Br  0.39031518  0.64934827  0.55789524    -0.01100
Br3210     Br  0.34162484  0.67087174  0.52141556    -0.01200
Br3211     Br  0.34524030  0.70228019  0.64955325    -0.01100
Br3212     Br  0.29889717  0.72745157  0.61080418    -0.01100
C3213       C  0.18644333  0.62997337  0.55381550    -0.02200
C3214       C  0.18833151  0.65766006  0.55647084     0.07400
C3215       C  0.17088542  0.67052489  0.57428015    -0.02400
C3216       C  0.15317354  0.65574019  0.58966863    -0.02400
C3217       C  0.15570493  0.62821174  0.59103984     0.07600
C3218       C  0.17041960  0.61545599  0.57124041    -0.02600
Br3219     Br  0.16563316  0.57837262  0.56573044    -0.01100
Br3220     Br  0.20460574  0.61150135  0.52585709    -0.01200
Br3221     Br  0.12283956  0.67308272  0.60429393    -0.01100
Br3222     Br  0.17189879  0.70818597  0.58020471    -0.01100
C3223       C  0.32764809  0.67056096  0.42985172    -0.02200
C3224       C  0.30873225  0.65705659  0.44558679     0.07400
C3225       C  0.30900168  0.62920562  0.44556343    -0.02400
C3226       C  0.32574450  0.61556591  0.42816461    -0.02400
C3227       C  0.34067936  0.62910963  0.40903659     0.07600
C3228       C  0.34367762  0.65657406  0.41187560    -0.02600
Br3229     Br  0.37095776  0.67515178  0.39318967    -0.01100
Br3230     Br  0.33268990  0.70828785  0.43298389    -0.01200
Br3231     Br  0.33106821  0.57847517  0.43302456    -0.01100
Br3232     Br  0.28559076  0.60889496  0.46771199    -0.01100
loop_ 
_geom_bond_atom_site_label_1 
_geom_bond_atom_site_label_2 
_geom_bond_distance 
_geom_bond_site_symmetry_2 
_ccdc_geom_bond_type 
Zn1           O5   1.949       .  S
Zn1           O6   1.996       .  S
Zn1          O10   2.063       .  S
Zn1          O17   2.044       .  S
Zn2           O5   1.937       .  S
Zn2           O7   1.984       .  S
Zn2           O9   2.042       .  S
Zn2          O13   2.055       .  S
Zn3           O5   1.920       .  S
Zn3           O8   2.000       .  S
Zn3          O11   2.061       .  S
Zn3          O14   2.064       .  S
Zn4           O5   1.883       .  S
Zn4          O12   1.974       .  S
Zn4          O15   1.968       .  S
Zn4          O16   1.957       .  S
O6           C18   1.275       .  A
O7           C19   1.272       .  A
O8           C20   1.272       .  A
O9           C18   1.280       .  A
O10          C20   1.279       .  A
O11          C19   1.282       .  A
O12          C21   1.270       .  A
O13          C22   1.275       .  A
O14          C21   1.283       .  A
O15          C22   1.264       .  A
O16          C23   1.266       .  A
O17          C23   1.276       .  A
C18        C3174   1.477       .  S
C19        C3224   1.498       .  S
C20        C3204   1.488       .  S
C21        C3214   1.495       .  S
C22        C3194   1.494       .  S
C23        C3184   1.486       .  S
Zn24         O28   1.930   1_554  S
Zn24         O29   2.001       .  S
Zn24         O33   2.056       .  S
Zn24         O40   2.027       .  S
Zn25         O28   1.932       .  S
Zn25         O30   2.038       .  S
Zn25         O32   2.050   1_556  S
Zn25         O36   1.984       .  S
Zn26         O28   1.920       .  S
Zn26         O31   1.998   1_556  S
Zn26         O34   1.975       .  S
Zn26         O37   1.992       .  S
Zn27         O28   1.944       .  S
Zn27         O35   2.015       .  S
Zn27         O38   2.059       .  S
Zn27         O39   1.986   1_556  S
O29          C41   1.272       .  A
O30          C42   1.278       .  A
O31          C43   1.270       .  A
O32          C41   1.280       .  A
O33          C43   1.278       .  A
O34          C42   1.269       .  A
O35          C44   1.274       .  A
O36          C45   1.269       .  A
O37          C44   1.273       .  A
O38          C45   1.279       .  A
O39          C46   1.271       .  A
O40          C46   1.278       .  A
C41        C3164   1.484       .  S
C42        C3157   1.485       .  S
C43        C3134   1.495       .  S
C44        C3124   1.480       .  S
C45        C3144   1.481       .  S
C46        C3114   1.487       .  S
Zn47         O51   1.886       .  S
Zn47         O52   1.962       .  S
Zn47         O56   1.983       .  S
Zn47         O63   1.993       .  S
Zn48         O51   1.921       .  S
Zn48         O53   1.979       .  S
Zn48         O55   2.052       .  S
Zn48         O59   2.041       .  S
Zn49         O51   1.938       .  S
Zn49         O54   2.049       .  S
Zn49         O57   2.064       .  S
Zn49         O60   2.007       .  S
Zn50         O51   1.914       .  S
Zn50         O58   2.016       .  S
Zn50         O61   1.983       .  S
Zn50         O62   2.038       .  S
O52          C64   1.270       .  A
O53          C65   1.268       .  A
O54          C66   1.278       .  A
O55          C64   1.282       .  A
O56          C66   1.272       .  A
O57          C65   1.279       .  A
O58          C67   1.277       .  A
O59          C68   1.278       .  A
O60          C67   1.277       .  A
O61          C68   1.269       .  A
O62          C69   1.275       .  A
O63          C69   1.269       .  A
C64        C3104   1.471       .  S
C65        C3084   1.486       .  S
C66        C3067   1.484       .  S
C67        C3057   1.467       .  S
C68        C3094   1.501       .  S
C69        C3074   1.477       .  S
Zn70         O74   1.909       .  S
Zn70         O75   1.983       .  S
Zn70         O79   1.983       .  S
Zn70         O86   2.018       .  S
Zn71         O74   1.931       .  S
Zn71         O76   2.018       .  S
Zn71         O78   2.051       .  S
Zn71         O82   2.052       .  S
Zn72         O74   1.944       .  S
Zn72         O77   2.031       .  S
Zn72         O80   2.065       .  S
Zn72         O83   2.024       .  S
Zn73         O74   1.908       .  S
Zn73         O81   2.013       .  S
Zn73         O84   1.990       .  S
Zn73         O85   2.048       .  S
O75          C87   1.271       .  A
O76          C88   1.276       .  A
O77          C89   1.275       .  A
O78          C87   1.278       .  A
O79          C89   1.270       .  A
O80          C88   1.281       .  A
O81          C90   1.277       .  A
O82          C91   1.278       .  A
O83          C90   1.276       .  A
O84          C91   1.270       .  A
O85          C92   1.276       .  A
O86          C92   1.273       .  A
C87        C3044   1.476       .  S
C88        C3027   1.493       .  S
C89        C2997   1.500       .  S
C90        C3004   1.477       .  S
C91        C3037   1.497       .  S
C92        C3017   1.498       .  S
Zn93         O97   1.915       .  S
Zn93         O98   2.030       .  S
Zn93        O102   1.980       .  S
Zn93        O109   1.992       .  S
Zn94         O97   1.911       .  S
Zn94         O99   1.995       .  S
Zn94        O101   2.011       .  S
Zn94        O105   1.999       .  S
Zn95         O97   1.931       .  S
Zn95        O100   2.034       .  S
Zn95        O103   2.028       .  S
Zn95        O106   1.990       .  S
Zn96         O97   1.956       .  S
Zn96        O104   2.070       .  S
Zn96        O107   2.042       .  S
Zn96        O108   2.022       .  S
O98         C110   1.274       .  A
O99         C111   1.274       .  A
O100        C112   1.277       .  A
O101        C110   1.271       .  A
O102        C112   1.270       .  A
O103        C111   1.277       .  A
O104        C113   1.280       .  A
O105        C114   1.273       .  A
O106        C113   1.271       .  A
O107        C114   1.278       .  A
O108        C115   1.275       .  A
O109        C115   1.275       .  A
C110       C2967   1.486       .  S
C111       C2977   1.479       .  S
C112       C2984   1.475       .  S
C113       C2957   1.491       .  S
C114       C2937   1.487       .  S
C115       C2947   1.474       .  S
Zn116       O120   1.903       .  S
Zn116       O121   1.962       .  S
Zn116       O125   2.008       .  S
Zn116       O132   2.025       .  S
Zn117       O120   1.930       .  S
Zn117       O122   2.076       .  S
Zn117       O124   2.040       .  S
Zn117       O128   2.012       .  S
Zn118       O120   1.895       .  S
Zn118       O123   2.053       .  S
Zn118       O126   1.969       .  S
Zn118       O129   1.996       .  S
Zn119       O120   1.927       .  S
Zn119       O127   1.998       .  S
Zn119       O130   2.050       .  S
Zn119       O131   2.011       .  S
O121        C133   1.268       .  A
O122        C134   1.281       .  A
O123        C135   1.277       .  A
O124        C133   1.281       .  A
O125        C135   1.272       .  A
O126        C134   1.268       .  A
O127        C136   1.271       .  A
O128        C137   1.274       .  A
O129        C136   1.274       .  A
O130        C137   1.278       .  A
O131        C138   1.275       .  A
O132        C138   1.277       .  A
C133       C2914   1.485       .  S
C134       C2927   1.494       .  S
C135       C2897   1.496       .  S
C136       C2884   1.486       .  S
C137       C2904   1.486       .  S
C138       C2874   1.473       .  S
Zn139       O143   1.900   1_455  S
Zn139       O144   2.042       .  S
Zn139       O148   2.022       .  S
Zn139       O155   2.048   1_455  S
Zn140       O143   1.862   1_455  S
Zn140       O145   1.971       .  S
Zn140       O147   1.958       .  S
Zn140       O151   1.980   1_455  S
Zn141       O143   1.913   1_455  S
Zn141       O146   2.066       .  S
Zn141       O149   2.039       .  S
Zn141       O152   2.007   1_455  S
Zn142       O143   1.895       .  S
Zn142       O150   2.005       .  S
Zn142       O153   2.051       .  S
Zn142       O154   1.982       .  S
O144        C156   1.280       .  A
O145        C157   1.269       .  A
O146        C158   1.282       .  A
O147        C156   1.270       .  A
O148        C158   1.276       .  A
O149        C157   1.278       .  A
O150        C159   1.275       .  A
O151        C160   1.268       .  A
O152        C159   1.277       .  A
O153        C160   1.277       .  A
O154        C161   1.269       .  A
O155        C161   1.279       .  A
C156       C2867   1.461       .  S
C157       C2814   1.482       .  S
C158       C2834   1.496       .  S
C159       C2827   1.464       .  S
C160       C2844   1.485       .  S
C161       C2857   1.497       .  S
Zn162       O166   1.939   1_565  S
Zn162       O167   2.066   1_565  S
Zn162       O171   1.991       .  S
Zn162       O178   2.080       .  S
Zn163       O166   1.931       .  S
Zn163       O168   2.015       .  S
Zn163       O170   1.991       .  S
Zn163       O174   2.014       .  S
Zn164       O166   1.934   1_565  S
Zn164       O169   2.057       .  S
Zn164       O172   2.009   1_565  S
Zn164       O175   2.031       .  S
Zn165       O166   1.923       .  S
Zn165       O173   2.024   1_545  S
Zn165       O176   2.017       .  S
Zn165       O177   1.992   1_545  S
O167        C179   1.282       .  A
O168        C180   1.275       .  A
O169        C181   1.278       .  A
O170        C179   1.270       .  A
O171        C181   1.270       .  A
O172        C180   1.275       .  A
O173        C182   1.276       .  A
O174        C183   1.274       .  A
O175        C182   1.277       .  A
O176        C183   1.274       .  A
O177        C184   1.271       .  A
O178        C184   1.284       .  A
C179       C2804   1.499       .  S
C180       C2764   1.472       .  S
C181       C2784   1.490       .  S
C182       C2754   1.479       .  S
C183       C2777   1.481       .  S
C184       C2797   1.482       .  S
Zn185       O189   1.897       .  S
Zn185       O190   1.960       .  S
Zn185       O194   2.014       .  S
Zn185       O201   1.971       .  S
Zn186       O189   1.921       .  S
Zn186       O191   2.023       .  S
Zn186       O193   2.039       .  S
Zn186       O197   2.000       .  S
Zn187       O189   1.910       .  S
Zn187       O192   2.025       .  S
Zn187       O195   1.982       .  S
Zn187       O198   1.991       .  S
Zn188       O189   1.950       .  S
Zn188       O196   2.054       .  S
Zn188       O199   2.071       .  S
Zn188       O200   2.049       .  S
O190        C202   1.269       .  A
O191        C203   1.278       .  A
O192        C204   1.272       .  A
O193        C202   1.278       .  A
O194        C204   1.270       .  A
O195        C203   1.272       .  A
O196        C205   1.280       .  A
O197        C206   1.271       .  A
O198        C205   1.273       .  A
O199        C206   1.280       .  A
O200        C207   1.277       .  A
O201        C207   1.272       .  A
C202       C2744   1.464       .  S
C203       C2734   1.480       .  S
C204       C2714   1.484       .  S
C205       C2704   1.492       .  S
C206       C2724   1.489       .  S
C207       C2697   1.488       .  S
C208        C209   1.524       .  S
C208        C214   1.547       .  S
C208        C212   1.550       .  S
C208       C2684   1.554       .  S
C209        H216   1.087       .  S
C209        C210   1.355       .  D
C210        C211   1.563       .  S
C210       C2674   1.494       .  S
C211        C215   1.549       .  S
C211        C213   1.553       .  S
C211        H217   1.100       .  S
C212        H218   1.077       .  S
C212        C213   1.373       .  D
C213       C2727   1.520       .  S
C214        H219   1.085       .  S
C214        C215   1.372       .  D
C215       C2794   1.521       .  S
C220        C221   1.536       .  S
C220        C226   1.525       .  S
C220        C224   1.555       .  S
C220       C2664   1.548       .  S
C221        H228   1.085       .  S
C221        C222   1.368       .  D
C222        C223   1.546       .  S
C222       C2774   1.513       .  S
C223        C227   1.558       .  S
C223        C225   1.538       .  S
C223        H229   1.096       .  S
C224        H230   1.080       .  S
C224        C225   1.378       .  D
C225       C2654   1.514       .  S
C226        H231   1.088       .  S
C226        C227   1.352       .  D
C227       C2854   1.482       .  S
C232        C233   1.546       .  S
C232        C238   1.532       .  S
C232        C236   1.541       .  S
C232       C2644   1.562       .  S
C233        H240   1.081       .  S
C233        C234   1.370       .  D
C234        C235   1.551       .  S
C234       C2624   1.504       .  S
C235        C239   1.546       .  S
C235        C237   1.550       .  S
C235        H241   1.108       .  S
C236        H242   1.083       .  S
C236        C237   1.369       .  D
C237       C2634   1.508       .  S
C238        H243   1.087       .  S
C238        C239   1.360       .  D
C239       C2737   1.498       .  S
C244        C245   1.554       .  S
C244        C250   1.513       .  S
C244        C248   1.547       .  S
C244       C2617   1.554       .  S
C245        H252   1.082       .  S
C245        C246   1.377       .  D
C246        C247   1.545       .  S
C246       C2607   1.517       .  S
C247        C251   1.559       .  S
C247        C249   1.555       .  S
C247        H253   1.100       .  S
C248        H254   1.082       .  S
C248        C249   1.376       .  D
C249       C2837   1.525       .  S
C250        H255   1.089       .  S
C250        C251   1.343       .  D
C251       C2987   1.481       .  S
C256        C257   1.548       .  S
C256        C262   1.526       .  S
C256        C260   1.545       .  S
C256       C2594   1.549       .  S
C257        H264   1.080       .  S
C257        C258   1.369       .  D
C258        C259   1.543       .  S
C258       C2964   1.512       .  S
C259        C263   1.559       .  S
C259        C261   1.542       .  S
C259        H265   1.094       .  S
C260        H266   1.085       .  S
C260        C261   1.379       .  D
C261       C2584   1.520       .  S
C262        H267   1.087       .  S
C262        C263   1.352       .  D
C263       C2577   1.485       .  S
C268        C269   1.533       .  S
C268        C274   1.541       .  S
C268        C272   1.540       .  S
C268       C3187   1.543       .  S
C269        H276   1.086       .  S
C269        C270   1.372       .  D
C270        C271   1.554       .  S
C270       C2564   1.507       .  S
C271        C275   1.544       .  S
C271        C273   1.551       .  S
C271        H277   1.107       .  S
C272        H278   1.076       .  S
C272        C273   1.366       .  D
C273       C2547   1.506       .  S
C274        H279   1.087       .  S
C274        C275   1.356       .  D
C275       C2554   1.491       .  S
Zn280       O284   1.952   1_455  S
Zn280       O285   2.003   1_455  S
Zn280       O289   1.996       .  S
Zn280       O296   2.018       .  S
Zn281       O284   1.959       .  S
Zn281       O286   2.017   1_545  S
Zn281       O288   2.026       .  S
Zn281       O292   2.033   1_545  S
Zn282       O284   1.988   1_465  S
Zn282       O287   2.066   1_565  S
Zn282       O290   2.046       .  S
Zn282       O293   2.054       .  S
Zn283       O284   1.950   1_455  S
Zn283       O291   1.982   1_545  S
Zn283       O294   2.014   1_445  S
Zn283       O295   2.017       .  S
O285        C297   1.272       .  A
O286        C298   1.273       .  A
O287        C299   1.278       .  A
O288        C297   1.275       .  A
O289        C299   1.271       .  A
O290        C298   1.277   1_455  A
O291        C300   1.270       .  A
O292        C301   1.275       .  A
O293        C300   1.278       .  A
O294        C301   1.272       .  A
O295        C302   1.274       .  A
O296        C302   1.272       .  A
C297       C2657   1.482       .  S
C298       C2677   1.477       .  S
C299       C2604   1.484       .  S
C300       C2567   1.480       .  S
C301       C2637   1.495       .  S
C302       C2587   1.483       .  S
Zn303       O307   1.893       .  S
Zn303       O308   2.006       .  S
Zn303       O312   1.967       .  S
Zn303       O319   2.048       .  S
Zn304       O307   1.939       .  S
Zn304       O309   2.080       .  S
Zn304       O311   2.037       .  S
Zn304       O315   2.079       .  S
Zn305       O307   1.924       .  S
Zn305       O310   2.066       .  S
Zn305       O313   2.016       .  S
Zn305       O316   2.065       .  S
Zn306       O307   1.886       .  S
Zn306       O314   1.955       .  S
Zn306       O317   1.972       .  S
Zn306       O318   2.004       .  S
O308        C320   1.276       .  A
O309        C321   1.284       .  A
O310        C322   1.283       .  A
O311        C320   1.276       .  A
O312        C322   1.270       .  A
O313        C321   1.274       .  A
O314        C323   1.269       .  A
O315        C324   1.283       .  A
O316        C323   1.282       .  A
O317        C324   1.272       .  A
O318        C325   1.269       .  A
O319        C325   1.274       .  A
C320       C2667   1.494       .  S
C321       C2514   1.494       .  S
C322       C2534   1.478       .  S
C323       C2524   1.470       .  S
C324       C2494   1.483       .  S
C325       C2504   1.484       .  S
Zn326       O330   1.950       .  S
Zn326       O331   2.064       .  S
Zn326       O335   2.100   1_455  S
Zn326       O342   2.036       .  S
Zn327       O330   1.924       .  S
Zn327       O332   2.013   1_455  S
Zn327       O334   1.982       .  S
Zn327       O338   2.013       .  S
Zn328       O330   1.911   1_655  S
Zn328       O333   1.955       .  S
Zn328       O336   2.051       .  S
Zn328       O339   2.014       .  S
Zn329       O330   1.936       .  S
Zn329       O337   1.988       .  S
Zn329       O340   1.998       .  S
Zn329       O341   2.037       .  S
O331        C343   1.284       .  A
O332        C344   1.270       .  A
O333        C345   1.268       .  A
O334        C343   1.273       .  A
O335        C345   1.285       .  A
O336        C344   1.275       .  A
O337        C346   1.270   1_455  A
O338        C347   1.274       .  A
O339        C346   1.276       .  A
O340        C347   1.272       .  A
O341        C348   1.276       .  A
O342        C348   1.275       .  A
C343       C2557   1.489       .  S
C344       C2627   1.504       .  S
C345       C2484   1.487       .  S
C346       C2454   1.490       .  S
C347       C2464   1.467       .  S
C348       C2474   1.481       .  S
C349        C350   1.536       .  S
C349        C355   1.546       .  S
C349        C353   1.538       .  S
C349       C2444   1.549       .  S
C350        H357   1.085       .  S
C350        C351   1.360       .  D
C351        C352   1.561       .  S
C351       C2477   1.491       .  S
C352        C356   1.537       .  S
C352        C354   1.551       .  S
C352        H358   1.104       .  S
C353        H359   1.084       .  S
C353        C354   1.373       .  D
C354       C2437   1.518       .  S
C355        H360   1.084       .  S
C355        C356   1.366       .  D
C356       C3217   1.500       .  S
C361        C362   1.538       .  S
C361        C367   1.528       .  S
C361        C365   1.556       .  S
C361       C2944   1.557       .  S
C362        H369   1.084       .  S
C362        C363   1.367       .  D
C363        C364   1.551       .  S
C363       C3087   1.507       .  S
C364        C368   1.543       .  S
C364        C366   1.547       .  S
C364        H370   1.108       .  S
C365        H371   1.083       .  S
C365        C366   1.375       .  D
C366       C2424   1.510       .  S
C367        H372   1.087       .  S
C367        C368   1.359       .  D
C368       C2864   1.489       .  S
C373        C374   1.542       .  S
C373        C379   1.539       .  S
C373        C377   1.520       .  S
C373       C2707   1.542       .  S
C374        H381   1.081       .  S
C374        C375   1.369       .  D
C375        C376   1.549       .  S
C375       C2414   1.497       .  S
C376        C380   1.556       .  S
C376        C378   1.556       .  S
C376        H382   1.108       .  S
C377        H383   1.087       .  S
C377        C378   1.358       .  D
C378       C2404   1.495       .  S
C379        H384   1.086       .  S
C379        C380   1.372       .  D
C380       C2487   1.517       .  S
C385        C386   1.542       .  S
C385        C391   1.525       .  S
C385        C389   1.537       .  S
C385       C2887   1.550       .  S
C386        H393   1.084       .  S
C386        C387   1.371       .  D
C387        C388   1.549       .  S
C387       C2394   1.493       .  S
C388        C392   1.548       .  S
C388        C390   1.549       .  S
C388        H394   1.108       .  S
C389        H395   1.083       .  S
C389        C390   1.363       .  D
C390       C2847   1.499       .  S
C391        H396   1.087       .  S
C391        C392   1.364       .  D
C392       C2537   1.499       .  S
C397        C398   1.530       .  S
C397        C403   1.527       .  S
C397        C401   1.554       .  S
C397       C2387   1.557       .  S
C398        H405   1.086       .  S
C398        C399   1.363       .  D
C399        C400   1.565       .  S
C399       C2517   1.506       .  S
C400        C404   1.563       .  S
C400        C402   1.535       .  S
C400        H406   1.091       .  S
C401        H407   1.080       .  S
C401        C402   1.367       .  D
C402       C2374   1.499       .  S
C403        H408   1.082       .  S
C403        C404   1.368       .  D
C404       C2364   1.534       .  S
C409        C410   1.534       .  S
C409        C415   1.537       .  S
C409        C413   1.543       .  S
C409       C2354   1.541       .  S
C410        H417   1.085       .  S
C410        C411   1.373       .  D
C411        C412   1.548       .  S
C411       C2347   1.509       .  S
C412        C416   1.542       .  S
C412        C414   1.543       .  S
C412        H418   1.104       .  S
C413        H419   1.083       .  S
C413        C414   1.365       .  D
C414       C3197   1.498       .  S
C415        H420   1.085       .  S
C415        C416   1.358       .  D
C416       C3097   1.484       .  S
Zn421       O425   1.959   1_455  S
Zn421       O426   2.024   1_455  S
Zn421       O430   2.012       .  S
Zn421       O437   2.017       .  S
Zn422       O425   1.950       .  S
Zn422       O427   1.996       .  S
Zn422       O429   2.002       .  S
Zn422       O433   2.030       .  S
Zn423       O425   1.969   1_455  S
Zn423       O428   2.052       .  S
Zn423       O431   2.042   1_455  S
Zn423       O434   2.036       .  S
Zn424       O425   1.962   1_455  S
Zn424       O432   1.998       .  S
Zn424       O435   2.018   1_455  S
Zn424       O436   2.013       .  S
O426        C438   1.273       .  A
O427        C439   1.270       .  A
O428        C440   1.278       .  A
O429        C438   1.272       .  A
O430        C440   1.271       .  A
O431        C439   1.276       .  A
O432        C441   1.271       .  A
O433        C442   1.275       .  A
O434        C441   1.276       .  A
O435        C442   1.273       .  A
O436        C443   1.272       .  A
O437        C443   1.275       .  A
C438       C2397   1.484       .  S
C439       C2377   1.478       .  S
C440       C2427   1.498       .  S
C441       C2434   1.489       .  S
C442       C2417   1.486       .  S
C443       C2344   1.475       .  S
C444        C445   1.542       .  S
C444        C450   1.526       .  S
C444        C448   1.548       .  S
C444       C2334   1.551       .  S
C445        H452   1.085       .  S
C445        C446   1.375       .  D
C446        C447   1.548       .  S
C446       C2327   1.518       .  S
C447        C451   1.558       .  S
C447        C449   1.547       .  S
C447        H453   1.098       .  S
C448        H454   1.079       .  S
C448        C449   1.373       .  D
C449       C2894   1.515       .  S
C450        H455   1.088       .  S
C450        C451   1.351       .  D
C451       C3034   1.485       .  S
C456        C457   1.540       .  S
C456        C462   1.528       .  S
C456        C460   1.560       .  S
C456       C2317   1.557       .  S
C457        H464   1.086       .  S
C457        C458   1.368       .  D
C458        C459   1.550       .  S
C458       C3137   1.513       .  S
C459        C463   1.543       .  S
C459        C461   1.550       .  S
C459        H465   1.106       .  S
C460        H466   1.081       .  S
C460        C461   1.383       .  D
C461       C2307   1.526       .  S
C462        H467   1.087       .  S
C462        C463   1.351       .  D
C463       C2917   1.478       .  S
C468        C469   1.559       .  S
C468        C474   1.521       .  S
C468        C472   1.527       .  S
C468       C2294   1.553       .  S
C469        H476   1.084       .  S
C469        C470   1.370       .  D
C470        C471   1.531       .  S
C470       C2284   1.497       .  S
C471        C475   1.568       .  S
C471        C473   1.564       .  S
C471        H477   1.093       .  S
C472        H478   1.083       .  S
C472        C473   1.363       .  D
C473       C2264   1.509       .  S
C474        H479   1.080       .  S
C474        C475   1.364       .  D
C475       C2274   1.534       .  S
C480        C481   1.549       .  S
C480        C486   1.529       .  S
C480        C484   1.537       .  S
C480       C2254   1.553       .  S
C481        H488   1.082       .  S
C481        C482   1.376       .  D
C482        C483   1.558       .  S
C482       C2234   1.515       .  S
C483        C487   1.548       .  S
C483        C485   1.553       .  S
C483        H489   1.109       .  S
C484        H490   1.085       .  S
C484        C485   1.371       .  D
C485       C2244   1.508       .  S
C486        H491   1.087       .  S
C486        C487   1.351       .  D
C487       C2224   1.491       .  S
C492        C493   1.544       .  S
C492        C498   1.528       .  S
C492        C496   1.548       .  S
C492       C2217   1.559       .  S
C493        H500   1.081       .  S
C493        C494   1.373       .  D
C494        C495   1.552       .  S
C494       C2204   1.514       .  S
C495        C499   1.548       .  S
C495        C497   1.547       .  S
C495        H501   1.107       .  S
C496        H502   1.082       .  S
C496        C497   1.368       .  D
C497       C2194   1.502       .  S
C498        H503   1.087       .  S
C498        C499   1.358       .  D
C499       C3154   1.493       .  S
C504        C505   1.554       .  S
C504        C510   1.527       .  S
C504        C508   1.528       .  S
C504       C3064   1.551       .  S
C505        H512   1.084       .  S
C505        C506   1.382       .  D
C506        C507   1.556       .  S
C506       C3024   1.518       .  S
C507        C511   1.547       .  S
C507        C509   1.550       .  S
C507        H513   1.109       .  S
C508        H514   1.086       .  S
C508        C509   1.364       .  D
C509       C2187   1.495       .  S
C510        H515   1.085       .  S
C510        C511   1.355       .  D
C511       C2174   1.491       .  S
Zn516       O520   1.987   1_556  S
Zn516       O521   2.048   1_556  S
Zn516       O525   2.057       .  S
Zn516       O532   2.060       .  S
Zn517       O520   1.966       .  S
Zn517       O522   2.041       .  S
Zn517       O524   2.020       .  S
Zn517       O528   2.047       .  S
Zn518       O520   1.957   1_556  S
Zn518       O523   1.992       .  S
Zn518       O526   2.042   1_556  S
Zn518       O529   2.017       .  S
Zn519       O520   1.957       .  S
Zn519       O527   2.018   1_554  S
Zn519       O530   1.996       .  S
Zn519       O531   1.997   1_554  S
O521        C533   1.277       .  A
O522        C534   1.277       .  A
O523        C535   1.271       .  A
O524        C533   1.276       .  A
O525        C535   1.278       .  A
O526        C534   1.275       .  A
O527        C536   1.273       .  A
O528        C537   1.275       .  A
O529        C536   1.275       .  A
O530        C537   1.271       .  A
O531        C538   1.270       .  A
O532        C538   1.279       .  A
C533       C2324   1.484       .  S
C534       C2304   1.501       .  S
C535       C2207   1.485       .  S
C536       C2247   1.482       .  S
C537       C2184   1.493       .  S
C538       C2287   1.483       .  S
Zn539       O543   1.901       .  S
Zn539       O544   2.015       .  S
Zn539       O548   1.962       .  S
Zn539       O555   1.968       .  S
Zn540       O543   1.937       .  S
Zn540       O545   1.990       .  S
Zn540       O547   2.057       .  S
Zn540       O551   2.052       .  S
Zn541       O543   1.927       .  S
Zn541       O546   2.054       .  S
Zn541       O549   2.014       .  S
Zn541       O552   2.015       .  S
Zn542       O543   1.934       .  S
Zn542       O550   2.058       .  S
Zn542       O553   2.001       .  S
Zn542       O554   2.026       .  S
O544        C556   1.272       .  A
O545        C557   1.271       .  A
O546        C558   1.281       .  A
O547        C556   1.278       .  A
O548        C558   1.267       .  A
O549        C557   1.277       .  A
O550        C559   1.279       .  A
O551        C560   1.281       .  A
O552        C559   1.272       .  A
O553        C560   1.274       .  A
O554        C561   1.276       .  A
O555        C561   1.272       .  A
C556       C2237   1.490       .  S
C557       C2164   1.483       .  S
C558       C2277   1.477       .  S
C559       C2154   1.486       .  S
C560       C2447   1.479       .  S
C561       C2144   1.474       .  S
C562        C563   1.520       .  S
C562        C568   1.539       .  S
C562        C566   1.544       .  S
C562       C2694   1.540       .  S
C563        H570   1.087       .  S
C563        C564   1.357       .  D
C564        C565   1.564       .  S
C564       C2134   1.486       .  S
C565        C569   1.546       .  S
C565        C567   1.556       .  S
C565        H571   1.102       .  S
C566        H572   1.080       .  S
C566        C567   1.372       .  D
C567       C2907   1.517       .  S
C568        H573   1.084       .  S
C568        C569   1.364       .  D
C569       C2124   1.510       .  S
C574        C575   1.549       .  S
C574        C580   1.537       .  S
C574        C578   1.534       .  S
C574       C2114   1.551       .  S
C575        H582   1.080       .  S
C575        C576   1.367       .  D
C576        C577   1.546       .  S
C576       C2104   1.504       .  S
C577        C581   1.551       .  S
C577        C579   1.555       .  S
C577        H583   1.108       .  S
C578        H584   1.086       .  S
C578        C579   1.370       .  D
C579       C2097   1.509       .  S
C580        H585   1.087       .  S
C580        C581   1.363       .  D
C581       C2527   1.497       .  S
C586        C587   1.537       .  S
C586        C592   1.534       .  S
C586        C590   1.545       .  S
C586       C2084   1.551       .  S
C587        H594   1.085       .  S
C587        C588   1.370       .  D
C588        C589   1.552       .  S
C588       C2074   1.510       .  S
C589        C593   1.547       .  S
C589        C591   1.551       .  S
C589        H595   1.108       .  S
C590        H596   1.076       .  S
C590        C591   1.367       .  D
C591       C3207   1.506       .  S
C592        H597   1.087       .  S
C592        C593   1.360       .  D
C593       C2167   1.495       .  S
C598        C599   1.527       .  S
C598        C604   1.547       .  S
C598        C602   1.535       .  S
C598       C3054   1.545       .  S
C599        H606   1.085       .  S
C599        C600   1.358       .  D
C600        C601   1.564       .  S
C600       C2054   1.489       .  S
C601        C605   1.539       .  S
C601        C603   1.555       .  S
C601        H607   1.101       .  S
C602        H608   1.083       .  S
C602        C603   1.372       .  D
C603       C2064   1.521       .  S
C604        H609   1.085       .  S
C604        C605   1.367       .  D
C605       C3227   1.504       .  S
C610        C611   1.531       .  S
C610        C616   1.536       .  S
C610        C614   1.546       .  S
C610       C3007   1.548       .  S
C611        H618   1.086       .  S
C611        C612   1.371       .  D
C612        C613   1.555       .  S
C612       C2507   1.512       .  S
C613        C617   1.546       .  S
C613        C615   1.545       .  S
C613        H619   1.106       .  S
C614        H620   1.081       .  S
C614        C615   1.370       .  D
C615       C2044   1.501       .  S
C616        H621   1.086       .  S
C616        C617   1.360       .  D
C617       C2924   1.489       .  S
C622        C623   1.531       .  S
C622        C628   1.534       .  S
C622        C626   1.555       .  S
C622       C2934   1.551       .  S
C623        H630   1.086       .  S
C623        C624   1.369       .  D
C624        C625   1.559       .  S
C624       C2157   1.505       .  S
C625        C629   1.554       .  S
C625        C627   1.546       .  S
C625        H631   1.107       .  S
C626        H632   1.083       .  S
C626        C627   1.371       .  D
C627       C2034   1.510       .  S
C628        H633   1.084       .  S
C628        C629   1.358       .  D
C629       C2027   1.507       .  S
Zn634       O638   1.967       .  S
Zn634       O639   2.016       .  S
Zn634       O643   2.018       .  S
Zn634       O650   2.012       .  S
Zn635       O638   1.968       .  S
Zn635       O640   2.054       .  S
Zn635       O642   2.022       .  S
Zn635       O646   2.003       .  S
Zn636       O638   1.956       .  S
Zn636       O641   2.018       .  S
Zn636       O644   2.021       .  S
Zn636       O647   2.032       .  S
Zn637       O638   1.985       .  S
Zn637       O645   2.054       .  S
Zn637       O648   2.059       .  S
Zn637       O649   2.042       .  S
O639        C651   1.273       .  A
O640        C652   1.275       .  A
O641        C653   1.273       .  A
O642        C651   1.275       .  A
O643        C653   1.273       .  A
O644        C652   1.272       .  A
O645        C654   1.278       .  A
O646        C655   1.273       .  A
O647        C654   1.276       .  A
O648        C655   1.278       .  A
O649        C656   1.276       .  A
O650        C656   1.272       .  A
C651       C2067   1.481       .  S
C652       C2037   1.512       .  S
C653       C2047   1.483       .  S
C654       C2107   1.490       .  S
C655       C2077   1.484       .  S
C656       C2137   1.475       .  S
Zn657       O661   1.939       .  S
Zn657       O662   2.027       .  S
Zn657       O666   2.069       .  S
Zn657       O673   2.059       .  S
Zn658       O661   1.922       .  S
Zn658       O663   2.000       .  S
Zn658       O665   2.042       .  S
Zn658       O669   2.022       .  S
Zn659       O661   1.917       .  S
Zn659       O664   1.985       .  S
Zn659       O667   2.014       .  S
Zn659       O670   2.030       .  S
Zn660       O661   1.910       .  S
Zn660       O668   2.005       .  S
Zn660       O671   2.026       .  S
Zn660       O672   1.990       .  S
O662        C674   1.276       .  A
O663        C675   1.274       .  A
O664        C676   1.272       .  A
O665        C674   1.278       .  A
O666        C676   1.281       .  A
O667        C675   1.274       .  A
O668        C677   1.274       .  A
O669        C678   1.276       .  A
O670        C677   1.273       .  A
O671        C678   1.276       .  A
O672        C679   1.271       .  A
O673        C679   1.282       .  A
C674       C2197   1.484       .  S
C675       C2087   1.474       .  S
C676       C2227   1.489       .  S
C677       C2004   1.478       .  S
C678       C1994   1.474       .  S
C679       C2014   1.476       .  S
Zn680       O684   1.931   1_565  S
Zn680       O685   2.040       .  S
Zn680       O689   2.026       .  S
Zn680       O696   1.979       .  S
Zn681       O684   1.943       .  S
Zn681       O686   2.021       .  S
Zn681       O688   2.015       .  S
Zn681       O692   2.071       .  S
Zn682       O684   1.921       .  S
Zn682       O687   2.028   1_545  S
Zn682       O690   2.014       .  S
Zn682       O693   1.999       .  S
Zn683       O684   1.943       .  S
Zn683       O691   2.045       .  S
Zn683       O694   1.996       .  S
Zn683       O695   2.021   1_545  S
O685        C697   1.278       .  A
O686        C698   1.275       .  A
O687        C699   1.275       .  A
O688        C697   1.277   1_545  A
O689        C699   1.274       .  A
O690        C698   1.276       .  A
O691        C700   1.278       .  A
O692        C701   1.280       .  A
O693        C700   1.273       .  A
O694        C701   1.271       .  A
O695        C702   1.276       .  A
O696        C702   1.271       .  A
C697       C1944   1.485       .  S
C698       C2614   1.487       .  S
C699       C1967   1.496       .  S
C700       C1984   1.477       .  S
C701       C1957   1.496       .  S
C702       C1977   1.478       .  S
Zn703       O707   1.898       .  S
Zn703       O708   1.995   1_554  S
Zn703       O712   2.012       .  S
Zn703       O719   1.974   1_554  S
Zn704       O707   1.947   1_556  S
Zn704       O709   2.015   1_556  S
Zn704       O711   2.051       .  S
Zn704       O715   2.051       .  S
Zn705       O707   1.911       .  S
Zn705       O710   2.055       .  S
Zn705       O713   2.003       .  S
Zn705       O716   1.998       .  S
Zn706       O707   1.920   1_556  S
Zn706       O714   2.030   1_556  S
Zn706       O717   1.980       .  S
Zn706       O718   2.010       .  S
O708        C720   1.273       .  A
O709        C721   1.277       .  A
O710        C722   1.276       .  A
O711        C720   1.275       .  A
O712        C722   1.271       .  A
O713        C721   1.277       .  A
O714        C723   1.277       .  A
O715        C724   1.277       .  A
O716        C723   1.273       .  A
O717        C724   1.268       .  A
O718        C725   1.277       .  A
O719        C725   1.271       .  A
C720       C2257   1.497       .  S
C721       C1894   1.474       .  S
C722       C1907   1.495       .  S
C723       C1937   1.482       .  S
C724       C1917   1.477       .  S
C725       C1924   1.470       .  S
C726        C727   1.538       .  S
C726        C732   1.535       .  S
C726        C730   1.544       .  S
C726       C1884   1.545       .  S
C727        H734   1.085       .  S
C727        C728   1.377       .  D
C728        C729   1.550       .  S
C728       C1874   1.511       .  S
C729        C733   1.536       .  S
C729        C731   1.543       .  S
C729        H735   1.103       .  S
C730        H736   1.075       .  S
C730        C731   1.365       .  D
C731       C2007   1.504       .  S
C732        H737   1.087       .  S
C732        C733   1.354       .  D
C733       C1927   1.476       .  S
C738        C739   1.533       .  S
C738        C744   1.528       .  S
C738        C742   1.546       .  S
C738       C3127   1.553       .  S
C739        H746   1.085       .  S
C739        C740   1.361       .  D
C740        C741   1.548       .  S
C740       C1854   1.496       .  S
C741        C745   1.550       .  S
C741        C743   1.550       .  S
C741        H747   1.106       .  S
C742        H748   1.081       .  S
C742        C743   1.372       .  D
C743       C1864   1.498       .  S
C744        H749   1.087       .  S
C744        C745   1.365       .  D
C745       C2017   1.507       .  S
C750        C751   1.545       .  S
C750        C756   1.539       .  S
C750        C754   1.538       .  S
C750       C1847   1.557       .  S
C751        H758   1.088       .  S
C751        C752   1.369       .  D
C752        C753   1.555       .  S
C752       C1904   1.511       .  S
C753        C757   1.549       .  S
C753        C755   1.550       .  S
C753        H759   1.108       .  S
C754        H760   1.085       .  S
C754        C755   1.366       .  D
C755       C1834   1.507       .  S
C756        H761   1.087       .  S
C756        C757   1.362       .  D
C757       C1974   1.503       .  S
C762        C763   1.544       .  S
C762        C768   1.538       .  S
C762        C766   1.533       .  S
C762       C1827   1.547       .  S
C763        H770   1.079       .  S
C763        C764   1.365       .  D
C764        C765   1.552       .  S
C764       C1814   1.509       .  S
C765        C769   1.550       .  S
C765        C767   1.559       .  S
C765        H771   1.107       .  S
C766        H772   1.086       .  S
C766        C767   1.371       .  D
C767       C1954   1.515       .  S
C768        H773   1.086       .  S
C768        C769   1.361       .  D
C769       C3047   1.493       .  S
C774        C775   1.530       .  S
C774        C780   1.527       .  S
C774        C778   1.547       .  S
C774       C1807   1.546       .  S
C775        H782   1.086       .  S
C775        C776   1.367       .  D
C776        C777   1.556       .  S
C776       C1797   1.502       .  S
C777        C781   1.548       .  S
C777        C779   1.555       .  S
C777        H783   1.108       .  S
C778        H784   1.084       .  S
C778        C779   1.374       .  D
C779       C1784   1.511       .  S
C780        H785   1.084       .  S
C780        C781   1.357       .  D
C781       C1774   1.494       .  S
C786        C787   1.547       .  S
C786        C792   1.540       .  S
C786        C790   1.520       .  S
C786       C2767   1.542       .  S
C787        H794   1.076       .  S
C787        C788   1.372       .  D
C788        C789   1.556       .  S
C788       C3014   1.525       .  S
C789        C793   1.541       .  S
C789        C791   1.566       .  S
C789        H795   1.097       .  S
C790        H796   1.087       .  S
C790        C791   1.358       .  D
C791       C1767   1.489       .  S
C792        H797   1.085       .  S
C792        C793   1.366       .  D
C793       C1754   1.508       .  S
Zn798       O802   1.972   1_554  S
Zn798       O803   2.045       .  S
Zn798       O807   2.039   1_554  S
Zn798       O814   2.007       .  S
Zn799       O802   1.959   1_564  S
Zn799       O804   2.023   1_554  S
Zn799       O806   2.045   1_565  S
Zn799       O810   2.024       .  S
Zn800       O802   1.959       .  S
Zn800       O805   2.013       .  S
Zn800       O808   2.022   1_545  S
Zn800       O811   1.985   1_545  S
Zn801       O802   1.988   1_564  S
Zn801       O809   2.062   1_554  S
Zn801       O812   2.061       .  S
Zn801       O813   2.043   1_565  S
O803        C815   1.276       .  A
O804        C816   1.275       .  A
O805        C817   1.274       .  A
O806        C815   1.276       .  A
O807        C817   1.275       .  A
O808        C816   1.273       .  A
O809        C818   1.278       .  A
O810        C819   1.275       .  A
O811        C818   1.267       .  A
O812        C819   1.278       .  A
O813        C820   1.277       .  A
O814        C820   1.272       .  A
C815       C1817   1.499       .  S
C816       C1877   1.492       .  S
C817       C1794   1.494       .  S
C818       C1867   1.488       .  S
C819       C1837   1.486       .  S
C820       C1764   1.475       .  S
Zn821       O825   1.933       .  S
Zn821       O826   2.022   1_455  S
Zn821       O830   2.068       .  S
Zn821       O837   2.037       .  S
Zn822       O825   1.909   1_655  S
Zn822       O827   1.962       .  S
Zn822       O829   2.022       .  S
Zn822       O833   2.062       .  S
Zn823       O825   1.931       .  S
Zn823       O828   2.032       .  S
Zn823       O831   2.072   1_455  S
Zn823       O834   2.070       .  S
Zn824       O825   1.879       .  S
Zn824       O832   1.941       .  S
Zn824       O835   1.982   1_455  S
Zn824       O836   1.972       .  S
O826        C838   1.278       .  A
O827        C839   1.270       .  A
O828        C840   1.276       .  A
O829        C838   1.277       .  A
O830        C840   1.281       .  A
O831        C839   1.284       .  A
O832        C841   1.268       .  A
O833        C842   1.276       .  A
O834        C841   1.283       .  A
O835        C842   1.266       .  A
O836        C843   1.271       .  A
O837        C843   1.277       .  A
C838       C2687   1.478       .  S
C839       C1737   1.481       .  S
C840       C1714   1.492       .  S
C841       C1747   1.473       .  S
C842       C1727   1.487       .  S
C843       C2357   1.476       .  S
Zn844       O848   1.893   1_554  S
Zn844       O849   1.994       .  S
Zn844       O853   1.988       .  S
Zn844       O860   1.999   1_554  S
Zn845       O848   1.946   1_554  S
Zn845       O850   2.062       .  S
Zn845       O852   2.049       .  S
Zn845       O856   2.009   1_554  S
Zn846       O848   1.927   1_554  S
Zn846       O851   2.050       .  S
Zn846       O854   1.998       .  S
Zn846       O857   2.052   1_554  S
Zn847       O848   1.936       .  S
Zn847       O855   2.002       .  S
Zn847       O858   2.046       .  S
Zn847       O859   2.072       .  S
O849        C861   1.270       .  A
O850        C862   1.278       .  A
O851        C863   1.280       .  A
O852        C861   1.277       .  A
O853        C863   1.272       .  A
O854        C862   1.271       .  A
O855        C864   1.274       .  A
O856        C865   1.275       .  A
O857        C864   1.281       .  A
O858        C865   1.280       .  A
O859        C866   1.279       .  A
O860        C866   1.271       .  A
C861       C2337   1.502       .  S
C862       C1694   1.487       .  S
C863       C1757   1.472       .  S
C864       C1704   1.487       .  S
C865       C1684   1.479       .  S
C866       C1787   1.495       .  S
Zn867       O871   1.941   1_565  S
Zn867       O872   2.056       .  S
Zn867       O876   2.061       .  S
Zn867       O883   2.020       .  S
Zn868       O871   1.935       .  S
Zn868       O873   2.024       .  S
Zn868       O875   1.988   1_545  S
Zn868       O879   2.052       .  S
Zn869       O871   1.918       .  S
Zn869       O874   1.995   1_545  S
Zn869       O877   2.009       .  S
Zn869       O880   2.001       .  S
Zn870       O871   1.942       .  S
Zn870       O878   2.043       .  S
Zn870       O881   1.994       .  S
Zn870       O882   2.029   1_545  S
O872        C884   1.280       .  A
O873        C885   1.275       .  A
O874        C886   1.271       .  A
O875        C884   1.274       .  A
O876        C886   1.280       .  A
O877        C885   1.273       .  A
O878        C887   1.278       .  A
O879        C888   1.278       .  A
O880        C887   1.274       .  A
O881        C888   1.270       .  A
O882        C889   1.277       .  A
O883        C889   1.275       .  A
C884       C1887   1.480       .  S
C885       C1654   1.473       .  S
C886       C2544   1.492       .  S
C887       C2574   1.481       .  S
C888       C1664   1.486       .  S
C889       C1677   1.483       .  S
C890        C891   1.550       .  S
C890        C896   1.539       .  S
C890        C894   1.528       .  S
C890       C1644   1.554       .  S
C891        H898   1.070       .  S
C891        C892   1.374       .  D
C892        C893   1.551       .  S
C892       C1634   1.510       .  S
C893        C897   1.550       .  S
C893        C895   1.555       .  S
C893        H899   1.109       .  S
C894        H900   1.085       .  S
C894        C895   1.363       .  D
C895       C1667   1.502       .  S
C896        H901   1.087       .  S
C896        C897   1.364       .  D
C897       C1627   1.507       .  S
C902        C903   1.542       .  S
C902        C908   1.548       .  S
C902        C906   1.538       .  S
C902       C1947   1.561       .  S
C903        H910   1.083       .  S
C903        C904   1.373       .  D
C904        C905   1.546       .  S
C904       C1614   1.514       .  S
C905        C909   1.538       .  S
C905        C907   1.559       .  S
C905        H911   1.101       .  S
C906        H912   1.084       .  S
C906        C907   1.363       .  D
C907       C1717   1.498       .  S
C908        H913   1.085       .  S
C908        C909   1.371       .  D
C909       C1934   1.506       .  S
C914        C915   1.528       .  S
C914        C920   1.542       .  S
C914        C918   1.544       .  S
C914       C2824   1.542       .  S
C915        H922   1.086       .  S
C915        C916   1.365       .  D
C916        C917   1.552       .  S
C916       C1604   1.502       .  S
C917        C921   1.556       .  S
C917        C919   1.549       .  S
C917        H923   1.108       .  S
C918        H924   1.081       .  S
C918        C919   1.365       .  D
C919       C1697   1.506       .  S
C920        H925   1.086       .  S
C920        C921   1.366       .  D
C921       C2807   1.506       .  S
C926        C927   1.543       .  S
C926        C932   1.524       .  S
C926        C930   1.540       .  S
C926       C3117   1.552       .  S
C927        H934   1.078       .  S
C927        C928   1.369       .  D
C928        C929   1.553       .  S
C928       C2787   1.510       .  S
C929        C933   1.549       .  S
C929        C931   1.550       .  S
C929        H935   1.107       .  S
C930        H936   1.085       .  S
C930        C931   1.366       .  D
C931       C1597   1.489       .  S
C932        H937   1.088       .  S
C932        C933   1.361       .  D
C933       C1734   1.499       .  S
C938        C939   1.513       .  S
C938        C944   1.534       .  S
C938        C942   1.558       .  S
C938       C2467   1.541       .  S
C939        H946   1.087       .  S
C939        C940   1.351       .  D
C940        C941   1.566       .  S
C940       C1914   1.488       .  S
C941        C945   1.555       .  S
C941        C943   1.545       .  S
C941        H947   1.099       .  S
C942        H948   1.077       .  S
C942        C943   1.378       .  D
C943       C1584   1.516       .  S
C944        H949   1.086       .  S
C944        C945   1.364       .  D
C945       C1674   1.518       .  S
C950        C951   1.515       .  S
C950        C956   1.538       .  S
C950        C954   1.550       .  S
C950       C1577   1.539       .  S
C951        H958   1.087       .  S
C951        C952   1.355       .  D
C952        C953   1.566       .  S
C952       C1554   1.488       .  S
C953        C957   1.549       .  S
C953        C955   1.548       .  S
C953        H959   1.101       .  S
C954        H960   1.078       .  S
C954        C955   1.373       .  D
C955       C1567   1.516       .  S
C956        H961   1.085       .  S
C956        C957   1.366       .  D
C957       C1707   1.513       .  S
Zn962       O966   1.963       .  S
Zn962       O967   2.000       .  S
Zn962       O971   2.036   1_655  S
Zn962       O978   2.033   1_556  S
Zn963       O966   1.979   1_565  S
Zn963       O968   2.037       .  S
Zn963       O970   2.045   1_565  S
Zn963       O974   2.049       .  S
Zn964       O966   1.956   1_465  S
Zn964       O969   2.027   1_565  S
Zn964       O972   2.025       .  S
Zn964       O975   2.042   1_556  S
Zn965       O966   1.947   1_554  S
Zn965       O973   1.993   1_645  S
Zn965       O976   1.992   1_545  S
Zn965       O977   1.987       .  S
O967        C979   1.272       .  A
O968        C980   1.275   1_655  A
O969        C981   1.276       .  A
O970        C979   1.276       .  A
O971        C981   1.276       .  A
O972        C980   1.275       .  A
O973        C982   1.269       .  A
O974        C983   1.277   1_556  A
O975        C982   1.276       .  A
O976        C983   1.270       .  A
O977        C984   1.268       .  A
O978        C984   1.273       .  A
C979       C1564   1.494       .  S
C980       C1587   1.491       .  S
C981       C1637   1.488       .  S
C982       C1617   1.483       .  S
C983       C1594   1.473       .  S
C984       C1607   1.490       .  S
Zn985       O989   1.926       .  S
Zn985       O990   2.061       .  S
Zn985       O994   2.021       .  S
Zn985      O1001   2.040   1_556  S
Zn986       O989   1.923       .  S
Zn986       O991   2.065       .  S
Zn986       O993   2.023       .  S
Zn986       O997   2.061   1_556  S
Zn987       O989   1.901       .  S
Zn987       O992   2.025       .  S
Zn987       O995   1.982       .  S
Zn987       O998   2.019   1_556  S
Zn988       O989   1.882   1_554  S
Zn988       O996   2.025       .  S
Zn988       O999   1.965       .  S
Zn988      O1000   1.988       .  S
O990       C1002   1.282       .  A
O991       C1003   1.283       .  A
O992       C1004   1.278       .  A
O993       C1002   1.275       .  A
O994       C1004   1.278       .  A
O995       C1003   1.274       .  A
O996       C1005   1.273       .  A
O997       C1006   1.282       .  A
O998       C1005   1.272       .  A
O999       C1006   1.269       .  A
O1000      C1007   1.273       .  A
O1001      C1007   1.277       .  A
C1002      C2267   1.498       .  S
C1003      C1544   1.472       .  S
C1004      C1647   1.476       .  S
C1005      C1537   1.490       .  S
C1006      C2177   1.480       .  S
C1007      C1824   1.477       .  S
Zn1008     O1012   1.902       .  S
Zn1008     O1013   2.012       .  S
Zn1008     O1017   2.014       .  S
Zn1008     O1024   1.983       .  S
Zn1009     O1012   1.920       .  S
Zn1009     O1014   2.003       .  S
Zn1009     O1016   2.034       .  S
Zn1009     O1020   1.979       .  S
Zn1010     O1012   1.930       .  S
Zn1010     O1015   2.025       .  S
Zn1010     O1018   2.006       .  S
Zn1010     O1021   2.063       .  S
Zn1011     O1012   1.922       .  S
Zn1011     O1019   2.015       .  S
Zn1011     O1022   2.046       .  S
Zn1011     O1023   2.043       .  S
O1013      C1025   1.272       .  A
O1014      C1026   1.276       .  A
O1015      C1027   1.277       .  A
O1016      C1025   1.275       .  A
O1017      C1027   1.274       .  A
O1018      C1026   1.274       .  A
O1019      C1028   1.275       .  A
O1020      C1029   1.270       .  A
O1021      C1028   1.280       .  A
O1022      C1029   1.278       .  A
O1023      C1030   1.280       .  A
O1024      C1030   1.271       .  A
C1025      C2407   1.489       .  S
C1026      C2214   1.485       .  S
C1027      C2117   1.474       .  S
C1028      C1514   1.489       .  S
C1029      C1527   1.485       .  S
C1030      C2367   1.486       .  S
Zn1031     O1035   1.940   1_655  S
Zn1031     O1036   2.002   1_655  S
Zn1031     O1040   2.038       .  S
Zn1031     O1047   2.047       .  S
Zn1032     O1035   1.925       .  S
Zn1032     O1037   2.061       .  S
Zn1032     O1039   2.034       .  S
Zn1032     O1043   1.986       .  S
Zn1033     O1035   1.918   1_655  S
Zn1033     O1038   2.003       .  S
Zn1033     O1041   2.006   1_655  S
Zn1033     O1044   1.974       .  S
Zn1034     O1035   1.951   1_655  S
Zn1034     O1042   2.064       .  S
Zn1034     O1045   2.080   1_655  S
Zn1034     O1046   2.013       .  S
O1036      C1048   1.274       .  A
O1037      C1049   1.279       .  A
O1038      C1050   1.274       .  A
O1039      C1048   1.278       .  A
O1040      C1050   1.277       .  A
O1041      C1049   1.271       .  A
O1042      C1051   1.282       .  A
O1043      C1052   1.270       .  A
O1044      C1051   1.270       .  A
O1045      C1052   1.283       .  A
O1046      C1053   1.273       .  A
O1047      C1053   1.278       .  A
C1048      C2597   1.478       .  S
C1049      C1494   1.489       .  S
C1050      C2384   1.483       .  S
C1051      C1504   1.487       .  S
C1052      C1624   1.497       .  S
C1053      C1557   1.479       .  S
C1054      C1055   1.539       .  S
C1054      C1060   1.537       .  S
C1054      C1058   1.546       .  S
C1054      C1687   1.552       .  S
C1055      H1062   1.085       .  S
C1055      C1056   1.376       .  D
C1056      C1057   1.552       .  S
C1056      C1484   1.512       .  S
C1057      C1061   1.549       .  S
C1057      C1059   1.549       .  S
C1057      H1063   1.106       .  S
C1058      H1064   1.077       .  S
C1058      C1059   1.364       .  D
C1059      C1517   1.511       .  S
C1060      H1065   1.087       .  S
C1060      C1061   1.360       .  D
C1061      C1507   1.492       .  S
C1066      C1067   1.542       .  S
C1066      C1072   1.529       .  S
C1066      C1070   1.543       .  S
C1066      C2147   1.557       .  S
C1067      H1074   1.082       .  S
C1067      C1068   1.372       .  D
C1068      C1069   1.557       .  S
C1068      C1497   1.515       .  S
C1069      C1073   1.550       .  S
C1069      C1071   1.549       .  S
C1069      H1075   1.108       .  S
C1070      H1076   1.082       .  S
C1070      C1071   1.365       .  D
C1071      C1474   1.496       .  S
C1072      H1077   1.087       .  S
C1072      C1073   1.363       .  D
C1073      C1547   1.500       .  S
C1078      C1079   1.549       .  S
C1078      C1084   1.527       .  S
C1078      C1082   1.544       .  S
C1078      C2457   1.556       .  S
C1079      H1086   1.084       .  S
C1079      C1080   1.372       .  D
C1080      C1081   1.550       .  S
C1080      C3147   1.505       .  S
C1081      C1085   1.549       .  S
C1081      C1083   1.547       .  S
C1081      H1087   1.108       .  S
C1082      H1088   1.081       .  S
C1082      C1083   1.369       .  D
C1083      C1464   1.507       .  S
C1084      H1089   1.087       .  S
C1084      C1085   1.358       .  D
C1085      C1524   1.498       .  S
C1090      C1091   1.537       .  S
C1090      C1096   1.526       .  S
C1090      C1094   1.549       .  S
C1090      C2817   1.541       .  S
C1091      H1098   1.084       .  S
C1091      C1092   1.374       .  D
C1092      C1093   1.546       .  S
C1092      C1454   1.519       .  S
C1093      C1097   1.558       .  S
C1093      C1095   1.543       .  S
C1093      H1099   1.093       .  S
C1094      H1100   1.082       .  S
C1094      C1095   1.373       .  D
C1095      C1534   1.512       .  S
C1096      H1101   1.087       .  S
C1096      C1097   1.349       .  D
C1097      C3107   1.483       .  S
C1102      C1103   1.552       .  S
C1102      C1108   1.535       .  S
C1102      C1106   1.513       .  S
C1102      C2877   1.543       .  S
C1103      H1110   1.079       .  S
C1103      C1104   1.370       .  D
C1104      C1105   1.543       .  S
C1104      C1444   1.506       .  S
C1105      C1109   1.567       .  S
C1105      C1107   1.566       .  S
C1105      H1111   1.097       .  S
C1106      H1112   1.087       .  S
C1106      C1107   1.353       .  D
C1107      C1724   1.496       .  S
C1108      H1113   1.083       .  S
C1108      C1109   1.372       .  D
C1109      C3167   1.531       .  S
C1114      C1115   1.528       .  S
C1114      C1120   1.531       .  S
C1114      C1118   1.547       .  S
C1114      C1897   1.538       .  S
C1115      H1122   1.086       .  S
C1115      C1116   1.369       .  D
C1116      C1117   1.554       .  S
C1116      C3077   1.507       .  S
C1117      C1121   1.542       .  S
C1117      C1119   1.547       .  S
C1117      H1123   1.105       .  S
C1118      H1124   1.081       .  S
C1118      C1119   1.371       .  D
C1119      C1437   1.502       .  S
C1120      H1125   1.086       .  S
C1120      C1121   1.354       .  D
C1121      C1744   1.479       .  S
Zn1126     O1130   1.945       .  S
Zn1126     O1131   2.009       .  S
Zn1126     O1135   1.978   1_556  S
Zn1126     O1142   2.020   1_556  S
Zn1127     O1130   1.952   1_655  S
Zn1127     O1132   2.005       .  S
Zn1127     O1134   2.036   1_655  S
Zn1127     O1138   1.990       .  S
Zn1128     O1130   1.988   1_654  S
Zn1128     O1133   2.067   1_655  S
Zn1128     O1136   2.063   1_554  S
Zn1128     O1139   2.058       .  S
Zn1129     O1130   1.971   1_654  S
Zn1129     O1137   2.017       .  S
Zn1129     O1140   2.033   1_554  S
Zn1129     O1141   2.025   1_655  S
O1131      C1143   1.271       .  A
O1132      C1144   1.274       .  A
O1133      C1145   1.279       .  A
O1134      C1143   1.271       .  A
O1135      C1145   1.267       .  A
O1136      C1144   1.279       .  A
O1137      C1146   1.273       .  A
O1138      C1147   1.271       .  A
O1139      C1146   1.279       .  A
O1140      C1147   1.274       .  A
O1141      C1148   1.275       .  A
O1142      C1148   1.274       .  A
C1143      C1477   1.502       .  S
C1144      C1487   1.485       .  S
C1145      C1457   1.496       .  S
C1146      C1447   1.491       .  S
C1147      C1467   1.483       .  S
C1148      C1434   1.479       .  S
Zn1149     O1153   1.910       .  S
Zn1149     O1154   2.018       .  S
Zn1149     O1158   1.991       .  S
Zn1149     O1165   1.974       .  S
Zn1150     O1153   1.933       .  S
Zn1150     O1155   2.019       .  S
Zn1150     O1157   2.034       .  S
Zn1150     O1161   2.064       .  S
Zn1151     O1153   1.931       .  S
Zn1151     O1156   2.054       .  S
Zn1151     O1159   2.033       .  S
Zn1151     O1162   2.003       .  S
Zn1152     O1153   1.951       .  S
Zn1152     O1160   2.066       .  S
Zn1152     O1163   2.009       .  S
Zn1152     O1164   2.073       .  S
O1154      C1166   1.273       .  A
O1155      C1167   1.277       .  A
O1156      C1168   1.276       .  A
O1157      C1166   1.277       .  A
O1158      C1168   1.269       .  A
O1159      C1167   1.277       .  A
O1160      C1169   1.282       .  A
O1161      C1170   1.281       .  A
O1162      C1169   1.274       .  A
O1163      C1170   1.272       .  A
O1164      C1171   1.283       .  A
O1165      C1171   1.270       .  A
C1166      C2314   1.480       .  S
C1167      C1844   1.489       .  S
C1168      C2057   1.509       .  S
C1169      C1427   1.484       .  S
C1170      C1414   1.495       .  S
C1171      C2127   1.474       .  S
Zn1172     O1176   1.925       .  S
Zn1172     O1177   2.005       .  S
Zn1172     O1181   2.059       .  S
Zn1172     O1188   2.032       .  S
Zn1173     O1176   1.898       .  S
Zn1173     O1178   1.973       .  S
Zn1173     O1180   2.039       .  S
Zn1173     O1184   2.048       .  S
Zn1174     O1176   1.906       .  S
Zn1174     O1179   1.983       .  S
Zn1174     O1182   2.049       .  S
Zn1174     O1185   2.050       .  S
Zn1175     O1176   1.885       .  S
Zn1175     O1183   1.984       .  S
Zn1175     O1186   1.978       .  S
Zn1175     O1187   1.967       .  S
O1177      C1189   1.273       .  A
O1178      C1190   1.271       .  A
O1179      C1191   1.270       .  A
O1180      C1189   1.280       .  A
O1181      C1191   1.280       .  A
O1182      C1190   1.281       .  A
O1183      C1192   1.271       .  A
O1184      C1193   1.277       .  A
O1185      C1192   1.282       .  A
O1186      C1193   1.266       .  A
O1187      C1194   1.269       .  A
O1188      C1194   1.276       .  A
C1189      C2297   1.501       .  S
C1190      C2024   1.479       .  S
C1191      C2094   1.487       .  S
C1192      C1404   1.486       .  S
C1193      C1397   1.497       .  S
C1194      C1804   1.472       .  S
Zn1195     O1199   1.908   1_565  S
Zn1195     O1200   2.047       .  S
Zn1195     O1204   2.002       .  S
Zn1195     O1211   1.979       .  S
Zn1196     O1199   1.905       .  S
Zn1196     O1201   2.014       .  S
Zn1196     O1203   1.996   1_545  S
Zn1196     O1207   1.956       .  S
Zn1197     O1199   1.926       .  S
Zn1197     O1202   2.005       .  S
Zn1197     O1205   2.004       .  S
Zn1197     O1208   2.036       .  S
Zn1198     O1199   1.938       .  S
Zn1198     O1206   2.022       .  S
Zn1198     O1209   2.045       .  S
Zn1198     O1210   2.060   1_545  S
O1200      C1212   1.276       .  A
O1201      C1213   1.275       .  A
O1202      C1214   1.274   1_545  A
O1203      C1212   1.271       .  A
O1204      C1214   1.274       .  A
O1205      C1213   1.273       .  A
O1206      C1215   1.275       .  A
O1207      C1216   1.268       .  A
O1208      C1215   1.276       .  A
O1209      C1216   1.279       .  A
O1210      C1217   1.279       .  A
O1211      C1217   1.268       .  A
C1212      C1857   1.491       .  S
C1213      C1574   1.465       .  S
C1214      C2647   1.482       .  S
C1215      C1377   1.480       .  S
C1216      C1777   1.461       .  S
C1217      C1387   1.493       .  S
C1218      C1219   1.552       .  S
C1218      C1224   1.534       .  S
C1218      C1222   1.534       .  S
C1218      C1657   1.554       .  S
C1219      H1226   1.080       .  S
C1219      C1220   1.370       .  D
C1220      C1221   1.546       .  S
C1220      C1364   1.509       .  S
C1221      C1225   1.548       .  S
C1221      C1223   1.551       .  S
C1221      H1227   1.108       .  S
C1222      H1228   1.086       .  S
C1222      C1223   1.366       .  D
C1223      C1394   1.500       .  S
C1224      H1229   1.086       .  S
C1224      C1225   1.365       .  D
C1225      C2974   1.497       .  S
C1230      C1231   1.548       .  S
C1230      C1236   1.537       .  S
C1230      C1234   1.533       .  S
C1230      C1997   1.551       .  S
C1231      H1238   1.083       .  S
C1231      C1232   1.369       .  D
C1232      C1233   1.545       .  S
C1232      C1354   1.504       .  S
C1233      C1237   1.545       .  S
C1233      C1235   1.553       .  S
C1233      H1239   1.107       .  S
C1234      H1240   1.086       .  S
C1234      C1235   1.372       .  D
C1235      C2717   1.511       .  S
C1236      H1241   1.086       .  S
C1236      C1237   1.363       .  D
C1237      C1384   1.489       .  S
C1242      C1243   1.540       .  S
C1242      C1248   1.534       .  S
C1242      C1246   1.542       .  S
C1242      C2497   1.546       .  S
C1243      H1250   1.086       .  S
C1243      C1244   1.365       .  D
C1244      C1245   1.545       .  S
C1244      C1374   1.494       .  S
C1245      C1249   1.548       .  S
C1245      C1247   1.546       .  S
C1245      H1251   1.105       .  S
C1246      H1252   1.086       .  S
C1246      C1247   1.378       .  D
C1247      C1344   1.515       .  S
C1248      H1253   1.093       .  S
C1248      C1249   1.354       .  D
C1249      C1407   1.487       .  S
C1254      C1255   1.522       .  S
C1254      C1260   1.537       .  S
C1254      C1258   1.550       .  S
C1254      C3177   1.550       .  S
C1255      H1262   1.087       .  S
C1255      C1256   1.359       .  D
C1256      C1257   1.563       .  S
C1256      C1334   1.485       .  S
C1257      C1261   1.548       .  S
C1257      C1259   1.549       .  S
C1257      H1263   1.098       .  S
C1258      H1264   1.081       .  S
C1258      C1259   1.374       .  D
C1259      C1964   1.518       .  S
C1260      H1265   1.086       .  S
C1260      C1261   1.365       .  D
C1261      C1424   1.519       .  S
C1266      C1267   1.535       .  S
C1266      C1272   1.537       .  S
C1266      C1270   1.548       .  S
C1266      C2757   1.554       .  S
C1267      H1274   1.085       .  S
C1267      C1268   1.371       .  D
C1268      C1269   1.553       .  S
C1268      C1417   1.508       .  S
C1269      C1273   1.547       .  S
C1269      C1271   1.545       .  S
C1269      H1275   1.109       .  S
C1270      H1276   1.074       .  S
C1270      C1271   1.367       .  D
C1271      C1324   1.505       .  S
C1272      H1277   1.087       .  S
C1272      C1273   1.364       .  D
C1273      C2747   1.493       .  S
C1278      C1279   1.546       .  S
C1278      C1284   1.524       .  S
C1278      C1282   1.544       .  S
C1278      C2994   1.546       .  S
C1279      H1286   1.079       .  S
C1279      C1280   1.367       .  D
C1280      C1281   1.547       .  S
C1280      C2954   1.514       .  S
C1281      C1285   1.561       .  S
C1281      C1283   1.551       .  S
C1281      H1287   1.094       .  S
C1282      H1288   1.084       .  S
C1282      C1283   1.378       .  D
C1283      C1314   1.528       .  S
C1284      H1289   1.087       .  S
C1284      C1285   1.352       .  D
C1285      C1987   1.484       .  S
Zn1290     O1294   1.960       .  S
Zn1290     O1295   2.034       .  S
Zn1290     O1299   2.014       .  S
Zn1290     O1306   2.012       .  S
Zn1291     O1294   1.966       .  S
Zn1291     O1296   2.035   1_545  S
Zn1291     O1298   2.037       .  S
Zn1291     O1302   2.014   1_545  S
Zn1292     O1294   1.967   1_565  S
Zn1292     O1297   2.024   1_565  S
Zn1292     O1300   2.033       .  S
Zn1292     O1303   2.019       .  S
Zn1293     O1294   1.986   1_565  S
Zn1293     O1301   2.052       .  S
Zn1293     O1304   2.024       .  S
Zn1293     O1305   2.045   1_565  S
O1295      C1307   1.274       .  A
O1296      C1308   1.276       .  A
O1297      C1309   1.275       .  A
O1298      C1307   1.275       .  A
O1299      C1309   1.275       .  A
O1300      C1308   1.275       .  A
O1301      C1310   1.277       .  A
O1302      C1311   1.273       .  A
O1303      C1310   1.273       .  A
O1304      C1311   1.275       .  A
O1305      C1312   1.275       .  A
O1306      C1312   1.272       .  A
C1307      C1317   1.497       .  S
C1308      C1327   1.492       .  S
C1309      C1347   1.479       .  S
C1310      C1357   1.491       .  S
C1311      C1337   1.470       .  S
C1312      C1367   1.483       .  S
C1313      C1314   1.431       .  A
C1313      C1318   1.416       .  A
C1313     Br1320   1.935       .  S
C1314      C1315   1.425       .  A
C1315      C1316   1.415       .  A
C1315     Br1322   1.936       .  S
C1316      C1317   1.410       .  A
C1316     Br1321   1.933       .  S
C1317      C1318   1.412       .  A
C1318     Br1319   1.941       .  S
C1323      C1324   1.421       .  A
C1323      C1328   1.413       .  A
C1323     Br1330   1.938       .  S
C1324      C1325   1.415       .  A
C1325      C1326   1.411       .  A
C1325     Br1332   1.926       .  S
C1326      C1327   1.412       .  A
C1326     Br1331   1.933       .  S
C1327      C1328   1.412       .  A
C1328     Br1329   1.930   1_565  S
C1333      C1334   1.414       .  A
C1333      C1338   1.409       .  A
C1333     Br1340   1.932       .  S
C1334      C1335   1.411       .  A
C1335      C1336   1.405       .  A
C1335     Br1342   1.928       .  S
C1336      C1337   1.405       .  A
C1336     Br1341   1.930       .  S
C1337      C1338   1.407       .  A
C1338     Br1339   1.928       .  S
C1343      C1344   1.429       .  A
C1343      C1348   1.409       .  A
C1343     Br1350   1.930       .  S
C1344      C1345   1.426       .  A
C1345      C1346   1.411       .  A
C1345     Br1352   1.934       .  S
C1346      C1347   1.404       .  A
C1346     Br1351   1.930       .  S
C1347      C1348   1.405       .  A
C1348     Br1349   1.942       .  S
C1353      C1354   1.420       .  A
C1353      C1358   1.415       .  A
C1353     Br1360   1.935       .  S
C1354      C1355   1.414       .  A
C1355      C1356   1.411       .  A
C1355     Br1362   1.927       .  S
C1356      C1357   1.412       .  A
C1356     Br1361   1.935       .  S
C1357      C1358   1.412       .  A
C1358     Br1359   1.929       .  S
C1363      C1364   1.419       .  A
C1363      C1368   1.410       .  A
C1363     Br1370   1.918       .  S
C1364      C1365   1.421       .  A
C1365      C1366   1.414       .  A
C1365     Br1372   1.930       .  S
C1366      C1367   1.406       .  A
C1366     Br1371   1.927       .  S
C1367      C1368   1.406       .  A
C1368     Br1369   1.937       .  S
C1373      C1374   1.416       .  A
C1373      C1378   1.411       .  A
C1373     Br1380   1.932       .  S
C1374      C1375   1.412       .  A
C1375      C1376   1.408       .  A
C1375     Br1382   1.924       .  S
C1376      C1377   1.407       .  A
C1376     Br1381   1.931       .  S
C1377      C1378   1.409       .  A
C1378     Br1379   1.929       .  S
C1383      C1384   1.408       .  A
C1383      C1388   1.403       .  A
C1383     Br1390   1.933       .  S
C1384      C1385   1.407       .  A
C1385      C1386   1.413       .  A
C1385     Br1392   1.922       .  S
C1386      C1387   1.418       .  A
C1386     Br1391   1.931       .  S
C1387      C1388   1.423       .  A
C1388     Br1389   1.942       .  S
C1393      C1394   1.407       .  A
C1393      C1398   1.412       .  A
C1393     Br1400   1.927       .  S
C1394      C1395   1.415       .  A
C1395      C1396   1.409       .  A
C1395     Br1402   1.919       .  S
C1396      C1397   1.413       .  A
C1396     Br1401   1.937       .  S
C1397      C1398   1.426       .  A
C1398     Br1399   1.939       .  S
C1403      C1404   1.410       .  A
C1403      C1408   1.406       .  A
C1403     Br1410   1.935       .  S
C1404      C1405   1.420       .  A
C1405      C1406   1.409       .  A
C1405     Br1412   1.933       .  S
C1406      C1407   1.404       .  A
C1406     Br1411   1.925       .  S
C1407      C1408   1.417       .  A
C1408     Br1409   1.932       .  S
C1413      C1414   1.415       .  A
C1413      C1418   1.415       .  A
C1413     Br1420   1.935       .  S
C1414      C1415   1.409       .  A
C1415      C1416   1.411       .  A
C1415     Br1422   1.928       .  S
C1416      C1417   1.420       .  A
C1416     Br1421   1.937       .  S
C1417      C1418   1.419       .  A
C1418     Br1419   1.927       .  S
C1423      C1424   1.428       .  A
C1423      C1428   1.420       .  A
C1423     Br1430   1.928       .  S
C1424      C1425   1.423       .  A
C1425      C1426   1.402       .  A
C1425     Br1432   1.936       .  S
C1426      C1427   1.401       .  A
C1426     Br1431   1.926       .  S
C1427      C1428   1.410       .  A
C1428     Br1429   1.933       .  S
C1433      C1434   1.406       .  A
C1433      C1438   1.404       .  A
C1433     Br1440   1.927       .  S
C1434      C1435   1.406       .  A
C1435      C1436   1.412       .  A
C1435     Br1442   1.932   1_554  S
C1436      C1437   1.425       .  A
C1436     Br1441   1.934       .  S
C1437      C1438   1.415       .  A
C1438     Br1439   1.929       .  S
C1443      C1444   1.417       .  A
C1443      C1448   1.411       .  A
C1443     Br1450   1.926       .  S
C1444      C1445   1.416       .  A
C1445      C1446   1.414       .  A
C1445     Br1452   1.923       .  S
C1446      C1447   1.411       .  A
C1446     Br1451   1.933       .  S
C1447      C1448   1.408       .  A
C1448     Br1449   1.924       .  S
C1453      C1454   1.425       .  A
C1453      C1458   1.411       .  A
C1453     Br1460   1.937       .  S
C1454      C1455   1.429       .  A
C1455      C1456   1.412       .  A
C1455     Br1462   1.939       .  S
C1456      C1457   1.418       .  A
C1456     Br1461   1.940       .  S
C1457      C1458   1.409       .  A
C1458     Br1459   1.934       .  S
C1463      C1464   1.424       .  A
C1463      C1468   1.413       .  A
C1463     Br1470   1.936       .  S
C1464      C1465   1.419       .  A
C1465      C1466   1.404       .  A
C1465     Br1472   1.923       .  S
C1466      C1467   1.409       .  A
C1466     Br1471   1.942       .  S
C1467      C1468   1.410       .  A
C1468     Br1469   1.931       .  S
C1473      C1474   1.408       .  A
C1473      C1478   1.415       .  A
C1473     Br1480   1.925       .  S
C1474      C1475   1.413       .  A
C1475      C1476   1.408       .  A
C1475     Br1482   1.929       .  S
C1476      C1477   1.416       .  A
C1476     Br1481   1.937       .  S
C1477      C1478   1.422       .  A
C1478     Br1479   1.931       .  S
C1483      C1484   1.423       .  A
C1483      C1488   1.407       .  A
C1483     Br1490   1.925       .  S
C1484      C1485   1.423       .  A
C1485      C1486   1.414       .  A
C1485     Br1492   1.937       .  S
C1486      C1487   1.407       .  A
C1486     Br1491   1.920       .  S
C1487      C1488   1.405       .  A
C1488     Br1489   1.935       .  S
C1493      C1494   1.409       .  A
C1493      C1498   1.414       .  A
C1493     Br1500   1.935       .  S
C1494      C1495   1.408       .  A
C1495      C1496   1.414       .  A
C1495     Br1502   1.933       .  S
C1496      C1497   1.426       .  A
C1496     Br1501   1.936       .  S
C1497      C1498   1.422       .  A
C1498     Br1499   1.925       .  S
C1503      C1504   1.409       .  A
C1503      C1508   1.410       .  A
C1503     Br1510   1.932       .  S
C1504      C1505   1.418       .  A
C1505      C1506   1.408       .  A
C1505     Br1512   1.935       .  S
C1506      C1507   1.405       .  A
C1506     Br1511   1.923       .  S
C1507      C1508   1.417       .  A
C1508     Br1509   1.927       .  S
C1513      C1514   1.408       .  A
C1513      C1518   1.417       .  A
C1513     Br1520   1.930       .  S
C1514      C1515   1.410       .  A
C1515      C1516   1.411       .  A
C1515     Br1522   1.938       .  S
C1516      C1517   1.418       .  A
C1516     Br1521   1.924       .  S
C1517      C1518   1.425       .  A
C1518     Br1519   1.935       .  S
C1523      C1524   1.421       .  A
C1523      C1528   1.406       .  A
C1523     Br1530   1.928       .  S
C1524      C1525   1.411       .  A
C1525      C1526   1.409       .  A
C1525     Br1532   1.927       .  S
C1526      C1527   1.416       .  A
C1526     Br1531   1.935       .  S
C1527      C1528   1.408       .  A
C1528     Br1529   1.935       .  S
C1533      C1534   1.422       .  A
C1533      C1538   1.413       .  A
C1533     Br1540   1.927       .  S
C1534      C1535   1.419       .  A
C1535      C1536   1.411       .  A
C1535     Br1542   1.926       .  S
C1536      C1537   1.409       .  A
C1536     Br1541   1.933       .  S
C1537      C1538   1.412       .  A
C1538     Br1539   1.936       .  S
C1543      C1544   1.408       .  A
C1543      C1548   1.415       .  A
C1543     Br1550   1.929       .  S
C1544      C1545   1.403       .  A
C1545      C1546   1.401       .  A
C1545     Br1552   1.937       .  S
C1546      C1547   1.417       .  A
C1546     Br1551   1.924       .  S
C1547      C1548   1.416       .  A
C1548     Br1549   1.922       .  S
C1553      C1554   1.410       .  A
C1553      C1558   1.410       .  A
C1553     Br1560   1.929       .  S
C1554      C1555   1.415       .  A
C1555      C1556   1.409       .  A
C1555     Br1562   1.935       .  S
C1556      C1557   1.408       .  A
C1556     Br1561   1.926       .  S
C1557      C1558   1.409       .  A
C1558     Br1559   1.930       .  S
C1563      C1564   1.412       .  A
C1563      C1568   1.415       .  A
C1563     Br1570   1.938       .  S
C1564      C1565   1.413       .  A
C1565      C1566   1.411       .  A
C1565     Br1572   1.941       .  S
C1566      C1567   1.421       .  A
C1566     Br1571   1.928       .  S
C1567      C1568   1.428       .  A
C1568     Br1569   1.934       .  S
C1573      C1574   1.404       .  A
C1573      C1578   1.406       .  A
C1573     Br1580   1.931       .  S
C1574      C1575   1.403       .  A
C1575      C1576   1.406       .  A
C1575     Br1582   1.933       .  S
C1576      C1577   1.426       .  A
C1576     Br1581   1.938       .  S
C1577      C1578   1.418       .  A
C1578     Br1579   1.933       .  S
C1583      C1584   1.421       .  A
C1583      C1588   1.411       .  A
C1583     Br1590   1.922       .  S
C1584      C1585   1.424       .  A
C1585      C1586   1.416       .  A
C1585     Br1592   1.927       .  S
C1586      C1587   1.411       .  A
C1586     Br1591   1.935   1_455  S
C1587      C1588   1.408       .  A
C1588     Br1589   1.938       .  S
C1593      C1594   1.405       .  A
C1593      C1598   1.407       .  A
C1593     Br1600   1.933       .  S
C1594      C1595   1.407       .  A
C1595      C1596   1.409       .  A
C1595     Br1602   1.926       .  S
C1596      C1597   1.409       .  A
C1596     Br1601   1.921       .  S
C1597      C1598   1.416       .  A
C1598     Br1599   1.927       .  S
C1603      C1604   1.423       .  A
C1603      C1608   1.412       .  A
C1603     Br1610   1.939       .  S
C1604      C1605   1.415       .  A
C1605      C1606   1.406       .  A
C1605     Br1612   1.928       .  S
C1606      C1607   1.417       .  A
C1606     Br1611   1.939       .  S
C1607      C1608   1.412       .  A
C1608     Br1609   1.934       .  S
C1613      C1614   1.420       .  A
C1613      C1618   1.411       .  A
C1613     Br1620   1.928       .  S
C1614      C1615   1.428       .  A
C1615      C1616   1.412       .  A
C1615     Br1622   1.927       .  S
C1616      C1617   1.405       .  A
C1616     Br1621   1.938   1_565  S
C1617      C1618   1.409       .  A
C1618     Br1619   1.936       .  S
C1623      C1624   1.418       .  A
C1623      C1628   1.407       .  A
C1623     Br1630   1.940       .  S
C1624      C1625   1.415       .  A
C1625      C1626   1.417       .  A
C1625     Br1632   1.933       .  S
C1626      C1627   1.416       .  A
C1626     Br1631   1.922       .  S
C1627      C1628   1.415       .  A
C1628     Br1629   1.927       .  S
C1633      C1634   1.419       .  A
C1633      C1638   1.410       .  A
C1633     Br1640   1.924       .  S
C1634      C1635   1.423       .  A
C1635      C1636   1.414       .  A
C1635     Br1642   1.935       .  S
C1636      C1637   1.410       .  A
C1636     Br1641   1.932   1_556  S
C1637      C1638   1.410       .  A
C1638     Br1639   1.938       .  S
C1643      C1644   1.421       .  A
C1643      C1648   1.413       .  A
C1643     Br1650   1.930       .  S
C1644      C1645   1.429       .  A
C1645      C1646   1.406       .  A
C1645     Br1652   1.929       .  S
C1646      C1647   1.402       .  A
C1646     Br1651   1.936       .  S
C1647      C1648   1.408       .  A
C1648     Br1649   1.932   1_556  S
C1653      C1654   1.397       .  A
C1653      C1658   1.406       .  A
C1653     Br1660   1.933       .  S
C1654      C1655   1.403       .  A
C1655      C1656   1.410       .  A
C1655     Br1662   1.925   1_545  S
C1656      C1657   1.424       .  A
C1656     Br1661   1.929       .  S
C1657      C1658   1.431       .  A
C1658     Br1659   1.922       .  S
C1663      C1664   1.413       .  A
C1663      C1668   1.411       .  A
C1663     Br1670   1.936       .  S
C1664      C1665   1.409       .  A
C1665      C1666   1.411       .  A
C1665     Br1672   1.929       .  S
C1666      C1667   1.421       .  A
C1666     Br1671   1.937       .  S
C1667      C1668   1.414       .  A
C1668     Br1669   1.925       .  S
C1673      C1674   1.420       .  A
C1673      C1678   1.414       .  A
C1673     Br1680   1.929       .  S
C1674      C1675   1.428       .  A
C1675      C1676   1.408       .  A
C1675     Br1682   1.933       .  S
C1676      C1677   1.403       .  A
C1676     Br1681   1.935       .  S
C1677      C1678   1.411       .  A
C1678     Br1679   1.931       .  S
C1683      C1684   1.409       .  A
C1683      C1688   1.409       .  A
C1683     Br1690   1.935       .  S
C1684      C1685   1.407       .  A
C1685      C1686   1.409       .  A
C1685     Br1692   1.929       .  S
C1686      C1687   1.419       .  A
C1686     Br1691   1.932       .  S
C1687      C1688   1.422       .  A
C1688     Br1689   1.925       .  S
C1693      C1694   1.409       .  A
C1693      C1698   1.416       .  A
C1693     Br1700   1.929       .  S
C1694      C1695   1.410       .  A
C1695      C1696   1.408       .  A
C1695     Br1702   1.938       .  S
C1696      C1697   1.415       .  A
C1696     Br1701   1.921       .  S
C1697      C1698   1.421       .  A
C1698     Br1699   1.932       .  S
C1703      C1704   1.406       .  A
C1703      C1708   1.408       .  A
C1703     Br1710   1.932       .  S
C1704      C1705   1.415       .  A
C1705      C1706   1.413       .  A
C1705     Br1712   1.936       .  S
C1706      C1707   1.418       .  A
C1706     Br1711   1.927       .  S
C1707      C1708   1.422       .  A
C1708     Br1709   1.929       .  S
C1713      C1714   1.410       .  A
C1713      C1718   1.413       .  A
C1713     Br1720   1.927       .  S
C1714      C1715   1.413       .  A
C1715      C1716   1.415       .  A
C1715     Br1722   1.929       .  S
C1716      C1717   1.411       .  A
C1716     Br1721   1.929       .  S
C1717      C1718   1.414       .  A
C1718     Br1719   1.930       .  S
C1723      C1724   1.420       .  A
C1723      C1728   1.410       .  A
C1723     Br1730   1.937       .  S
C1724      C1725   1.409       .  A
C1725      C1726   1.408       .  A
C1725     Br1732   1.923       .  S
C1726      C1727   1.411       .  A
C1726     Br1731   1.925       .  S
C1727      C1728   1.411       .  A
C1728     Br1729   1.934       .  S
C1733      C1734   1.416       .  A
C1733      C1738   1.414       .  A
C1733     Br1740   1.926       .  S
C1734      C1735   1.417       .  A
C1735      C1736   1.401       .  A
C1735     Br1742   1.940       .  S
C1736      C1737   1.414       .  A
C1736     Br1741   1.938       .  S
C1737      C1738   1.411       .  A
C1738     Br1739   1.932       .  S
C1743      C1744   1.410       .  A
C1743      C1748   1.410       .  A
C1743     Br1750   1.923       .  S
C1744      C1745   1.410       .  A
C1745      C1746   1.400       .  A
C1745     Br1752   1.932       .  S
C1746      C1747   1.412       .  A
C1746     Br1751   1.938       .  S
C1747      C1748   1.409       .  A
C1748     Br1749   1.929       .  S
C1753      C1754   1.422       .  A
C1753      C1758   1.406       .  A
C1753     Br1760   1.932       .  S
C1754      C1755   1.425       .  A
C1755      C1756   1.412       .  A
C1755     Br1762   1.926       .  S
C1756      C1757   1.404       .  A
C1756     Br1761   1.934       .  S
C1757      C1758   1.403       .  A
C1758     Br1759   1.932       .  S
C1763      C1764   1.408       .  A
C1763      C1768   1.409       .  A
C1763     Br1770   1.928       .  S
C1764      C1765   1.407       .  A
C1765      C1766   1.409       .  A
C1765     Br1772   1.931       .  S
C1766      C1767   1.415       .  A
C1766     Br1771   1.928       .  S
C1767      C1768   1.411       .  A
C1768     Br1769   1.930       .  S
C1773      C1774   1.422       .  A
C1773      C1778   1.400       .  A
C1773     Br1780   1.940       .  S
C1774      C1775   1.417       .  A
C1775      C1776   1.409       .  A
C1775     Br1782   1.924       .  S
C1776      C1777   1.405       .  A
C1776     Br1781   1.932       .  S
C1777      C1778   1.401       .  A
C1778     Br1779   1.932       .  S
C1783      C1784   1.417       .  A
C1783      C1788   1.412       .  A
C1783     Br1790   1.929       .  S
C1784      C1785   1.419       .  A
C1785      C1786   1.416       .  A
C1785     Br1792   1.922       .  S
C1786      C1787   1.412       .  A
C1786     Br1791   1.935       .  S
C1787      C1788   1.412       .  A
C1788     Br1789   1.932       .  S
C1793      C1794   1.411       .  A
C1793      C1798   1.406       .  A
C1793     Br1800   1.937       .  S
C1794      C1795   1.420       .  A
C1795      C1796   1.416       .  A
C1795     Br1802   1.933       .  S
C1796      C1797   1.411       .  A
C1796     Br1801   1.927       .  S
C1797      C1798   1.416       .  A
C1798     Br1799   1.921       .  S
C1803      C1804   1.407       .  A
C1803      C1808   1.398       .  A
C1803     Br1810   1.944       .  S
C1804      C1805   1.409       .  A
C1805      C1806   1.412       .  A
C1805     Br1812   1.933       .  S
C1806      C1807   1.419       .  A
C1806     Br1811   1.925       .  S
C1807      C1808   1.427       .  A
C1808     Br1809   1.932       .  S
C1813      C1814   1.424       .  A
C1813      C1818   1.417       .  A
C1813     Br1820   1.937       .  S
C1814      C1815   1.413       .  A
C1815      C1816   1.412       .  A
C1815     Br1822   1.928       .  S
C1816      C1817   1.414       .  A
C1816     Br1821   1.926       .  S
C1817      C1818   1.413       .  A
C1818     Br1819   1.933   1_554  S
C1823      C1824   1.407       .  A
C1823      C1828   1.400       .  A
C1823     Br1830   1.934       .  S
C1824      C1825   1.410       .  A
C1825      C1826   1.413       .  A
C1825     Br1832   1.931   1_554  S
C1826      C1827   1.421       .  A
C1826     Br1831   1.933       .  S
C1827      C1828   1.417       .  A
C1828     Br1829   1.924       .  S
C1833      C1834   1.421       .  A
C1833      C1838   1.416       .  A
C1833     Br1840   1.932       .  S
C1834      C1835   1.417       .  A
C1835      C1836   1.408       .  A
C1835     Br1842   1.919       .  S
C1836      C1837   1.404       .  A
C1836     Br1841   1.930       .  S
C1837      C1838   1.408       .  A
C1838     Br1839   1.927       .  S
C1843      C1844   1.413       .  A
C1843      C1848   1.415       .  A
C1843     Br1850   1.932       .  S
C1844      C1845   1.408       .  A
C1845      C1846   1.406       .  A
C1845     Br1852   1.933       .  S
C1846      C1847   1.425       .  A
C1846     Br1851   1.933       .  S
C1847      C1848   1.422       .  A
C1848     Br1849   1.930       .  S
C1853      C1854   1.412       .  A
C1853      C1858   1.412       .  A
C1853     Br1860   1.928       .  S
C1854      C1855   1.416       .  A
C1855      C1856   1.408       .  A
C1855     Br1862   1.936       .  S
C1856      C1857   1.414       .  A
C1856     Br1861   1.935       .  S
C1857      C1858   1.416       .  A
C1858     Br1859   1.933       .  S
C1863      C1864   1.416       .  A
C1863      C1868   1.409       .  A
C1863     Br1870   1.930       .  S
C1864      C1865   1.411       .  A
C1865      C1866   1.413       .  A
C1865     Br1872   1.926       .  S
C1866      C1867   1.417       .  A
C1866     Br1871   1.935       .  S
C1867      C1868   1.409       .  A
C1868     Br1869   1.932       .  S
C1873      C1874   1.424       .  A
C1873      C1878   1.411       .  A
C1873     Br1880   1.929       .  S
C1874      C1875   1.420       .  A
C1875      C1876   1.412       .  A
C1875     Br1882   1.937       .  S
C1876      C1877   1.412       .  A
C1876     Br1881   1.932       .  S
C1877      C1878   1.413       .  A
C1878     Br1879   1.942       .  S
C1883      C1884   1.416       .  A
C1883      C1888   1.402       .  A
C1883     Br1890   1.925       .  S
C1884      C1885   1.416       .  A
C1885      C1886   1.411       .  A
C1885     Br1892   1.932       .  S
C1886      C1887   1.410       .  A
C1886     Br1891   1.925       .  S
C1887      C1888   1.409       .  A
C1888     Br1889   1.930       .  S
C1893      C1894   1.406       .  A
C1893      C1898   1.400       .  A
C1893     Br1900   1.937       .  S
C1894      C1895   1.410       .  A
C1895      C1896   1.408       .  A
C1895     Br1902   1.926       .  S
C1896      C1897   1.417       .  A
C1896     Br1901   1.933       .  S
C1897      C1898   1.423       .  A
C1898     Br1899   1.929       .  S
C1903      C1904   1.423       .  A
C1903      C1908   1.415       .  A
C1903     Br1910   1.935       .  S
C1904      C1905   1.415       .  A
C1905      C1906   1.412       .  A
C1905     Br1912   1.927       .  S
C1906      C1907   1.415       .  A
C1906     Br1911   1.936       .  S
C1907      C1908   1.411       .  A
C1908     Br1909   1.932       .  S
C1913      C1914   1.417       .  A
C1913      C1918   1.409       .  A
C1913     Br1920   1.935       .  S
C1914      C1915   1.410       .  A
C1915      C1916   1.408       .  A
C1915     Br1922   1.928       .  S
C1916      C1917   1.411       .  A
C1916     Br1921   1.932       .  S
C1917      C1918   1.408       .  A
C1918     Br1919   1.930       .  S
C1923      C1924   1.408       .  A
C1923      C1928   1.402       .  A
C1923     Br1930   1.935       .  S
C1924      C1925   1.415       .  A
C1925      C1926   1.403       .  A
C1925     Br1932   1.936       .  S
C1926      C1927   1.404       .  A
C1926     Br1931   1.926       .  S
C1927      C1928   1.413       .  A
C1928     Br1929   1.928       .  S
C1933      C1934   1.411       .  A
C1933      C1938   1.412       .  A
C1933     Br1940   1.926       .  S
C1934      C1935   1.410       .  A
C1935      C1936   1.404       .  A
C1935     Br1942   1.915       .  S
C1936      C1937   1.408       .  A
C1936     Br1941   1.930       .  S
C1937      C1938   1.416       .  A
C1938     Br1939   1.932       .  S
C1943      C1944   1.404       .  A
C1943      C1948   1.407       .  A
C1943     Br1950   1.939       .  S
C1944      C1945   1.408       .  A
C1945      C1946   1.417       .  A
C1945     Br1952   1.933       .  S
C1946      C1947   1.428       .  A
C1946     Br1951   1.932       .  S
C1947      C1948   1.428       .  A
C1948     Br1949   1.921       .  S
C1953      C1954   1.424       .  A
C1953      C1958   1.415       .  A
C1953     Br1960   1.937       .  S
C1954      C1955   1.420       .  A
C1955      C1956   1.413       .  A
C1955     Br1962   1.927       .  S
C1956      C1957   1.415       .  A
C1956     Br1961   1.940       .  S
C1957      C1958   1.411       .  A
C1958     Br1959   1.933       .  S
C1963      C1964   1.422       .  A
C1963      C1968   1.413       .  A
C1963     Br1970   1.928       .  S
C1964      C1965   1.424       .  A
C1965      C1966   1.414       .  A
C1965     Br1972   1.931       .  S
C1966      C1967   1.411       .  A
C1966     Br1971   1.935       .  S
C1967      C1968   1.414       .  A
C1968     Br1969   1.938       .  S
C1973      C1974   1.423       .  A
C1973      C1978   1.407       .  A
C1973     Br1980   1.925       .  S
C1974      C1975   1.415       .  A
C1975      C1976   1.406       .  A
C1975     Br1982   1.924       .  S
C1976      C1977   1.411       .  A
C1976     Br1981   1.935       .  S
C1977      C1978   1.406       .  A
C1978     Br1979   1.937       .  S
C1983      C1984   1.411       .  A
C1983      C1988   1.405       .  A
C1983     Br1990   1.933       .  S
C1984      C1985   1.409       .  A
C1985      C1986   1.411       .  A
C1985     Br1992   1.928       .  S
C1986      C1987   1.415       .  A
C1986     Br1991   1.931       .  S
C1987      C1988   1.410       .  A
C1988     Br1989   1.934       .  S
C1993      C1994   1.406       .  A
C1993      C1998   1.414       .  A
C1993     Br2000   1.925       .  S
C1994      C1995   1.399       .  A
C1995      C1996   1.405       .  A
C1995     Br2002   1.935       .  S
C1996      C1997   1.425       .  A
C1996     Br2001   1.921       .  S
C1997      C1998   1.423       .  A
C1998     Br1999   1.934       .  S
C2003      C2004   1.401       .  A
C2003      C2008   1.399       .  A
C2003     Br2010   1.927       .  S
C2004      C2005   1.405       .  A
C2005      C2006   1.415       .  A
C2005     Br2012   1.929       .  S
C2006      C2007   1.428       .  A
C2006     Br2011   1.934       .  S
C2007      C2008   1.416       .  A
C2008     Br2009   1.928       .  S
C2013      C2014   1.402       .  A
C2013      C2018   1.403       .  A
C2013     Br2020   1.932       .  S
C2014      C2015   1.409       .  A
C2015      C2016   1.412       .  A
C2015     Br2022   1.924       .  S
C2016      C2017   1.421       .  A
C2016     Br2021   1.927       .  S
C2017      C2018   1.421       .  A
C2018     Br2019   1.929       .  S
C2023      C2024   1.411       .  A
C2023      C2028   1.408       .  A
C2023     Br2030   1.937       .  S
C2024      C2025   1.404       .  A
C2025      C2026   1.408       .  A
C2025     Br2032   1.935       .  S
C2026      C2027   1.432       .  A
C2026     Br2031   1.943       .  S
C2027      C2028   1.416       .  A
C2028     Br2029   1.929       .  S
C2033      C2034   1.410       .  A
C2033      C2038   1.409       .  A
C2033     Br2040   1.917       .  S
C2034      C2035   1.415       .  A
C2035      C2036   1.420       .  A
C2035     Br2042   1.931       .  S
C2036      C2037   1.424       .  A
C2036     Br2041   1.933       .  S
C2037      C2038   1.422       .  A
C2038     Br2039   1.940       .  S
C2043      C2044   1.415       .  A
C2043      C2048   1.408       .  A
C2043     Br2050   1.925       .  S
C2044      C2045   1.421       .  A
C2045      C2046   1.412       .  A
C2045     Br2052   1.935       .  S
C2046      C2047   1.411       .  A
C2046     Br2051   1.934       .  S
C2047      C2048   1.410       .  A
C2048     Br2049   1.936       .  S
C2053      C2054   1.410       .  A
C2053      C2058   1.413       .  A
C2053     Br2060   1.936       .  S
C2054      C2055   1.408       .  A
C2055      C2056   1.411       .  A
C2055     Br2062   1.936       .  S
C2056      C2057   1.426       .  A
C2056     Br2061   1.938       .  S
C2057      C2058   1.423       .  A
C2058     Br2059   1.931       .  S
C2063      C2064   1.435       .  A
C2063      C2068   1.410       .  A
C2063     Br2070   1.933       .  S
C2064      C2065   1.428       .  A
C2065      C2066   1.413       .  A
C2065     Br2072   1.930       .  S
C2066      C2067   1.406       .  A
C2066     Br2071   1.936       .  S
C2067      C2068   1.401       .  A
C2068     Br2069   1.939       .  S
C2073      C2074   1.421       .  A
C2073      C2078   1.408       .  A
C2073     Br2080   1.922       .  S
C2074      C2075   1.423       .  A
C2075      C2076   1.415       .  A
C2075     Br2082   1.936       .  S
C2076      C2077   1.408       .  A
C2076     Br2081   1.926       .  S
C2077      C2078   1.405       .  A
C2078     Br2079   1.938       .  S
C2083      C2084   1.420       .  A
C2083      C2088   1.411       .  A
C2083     Br2090   1.930       .  S
C2084      C2085   1.425       .  A
C2085      C2086   1.403       .  A
C2085     Br2092   1.927       .  S
C2086      C2087   1.404       .  A
C2086     Br2091   1.939       .  S
C2087      C2088   1.409       .  A
C2088     Br2089   1.931       .  S
C2093      C2094   1.409       .  A
C2093      C2098   1.413       .  A
C2093     Br2100   1.932       .  S
C2094      C2095   1.413       .  A
C2095      C2096   1.409       .  A
C2095     Br2102   1.941       .  S
C2096      C2097   1.419       .  A
C2096     Br2101   1.926       .  S
C2097      C2098   1.424       .  A
C2098     Br2099   1.936       .  S
C2103      C2104   1.413       .  A
C2103      C2108   1.410       .  A
C2103     Br2110   1.923       .  S
C2104      C2105   1.419       .  A
C2105      C2106   1.415       .  A
C2105     Br2112   1.934       .  S
C2106      C2107   1.411       .  A
C2106     Br2111   1.930       .  S
C2107      C2108   1.409       .  A
C2108     Br2109   1.929       .  S
C2113      C2114   1.423       .  A
C2113      C2118   1.404       .  A
C2113     Br2120   1.921       .  S
C2114      C2115   1.421       .  A
C2115      C2116   1.413       .  A
C2115     Br2122   1.932       .  S
C2116      C2117   1.408       .  A
C2116     Br2121   1.929       .  S
C2117      C2118   1.401       .  A
C2118     Br2119   1.934       .  S
C2123      C2124   1.422       .  A
C2123      C2128   1.415       .  A
C2123     Br2130   1.925       .  S
C2124      C2125   1.419       .  A
C2125      C2126   1.404       .  A
C2125     Br2132   1.929       .  S
C2126      C2127   1.404       .  A
C2126     Br2131   1.933       .  S
C2127      C2128   1.406       .  A
C2128     Br2129   1.931       .  S
C2133      C2134   1.410       .  A
C2133      C2138   1.406       .  A
C2133     Br2140   1.930       .  S
C2134      C2135   1.410       .  A
C2135      C2136   1.410       .  A
C2135     Br2142   1.931       .  S
C2136      C2137   1.409       .  A
C2136     Br2141   1.927       .  S
C2137      C2138   1.407       .  A
C2138     Br2139   1.926       .  S
C2143      C2144   1.401       .  A
C2143      C2148   1.412       .  A
C2143     Br2150   1.941       .  S
C2144      C2145   1.402       .  A
C2145      C2146   1.404       .  A
C2145     Br2152   1.943       .  S
C2146      C2147   1.433       .  A
C2146     Br2151   1.929       .  S
C2147      C2148   1.438       .  A
C2148     Br2149   1.932       .  S
C2153      C2154   1.406       .  A
C2153      C2158   1.411       .  A
C2153     Br2160   1.932       .  S
C2154      C2155   1.413       .  A
C2155      C2156   1.415       .  A
C2155     Br2162   1.932       .  S
C2156      C2157   1.413       .  A
C2156     Br2161   1.921       .  S
C2157      C2158   1.417       .  A
C2158     Br2159   1.922       .  S
C2163      C2164   1.409       .  A
C2163      C2168   1.402       .  A
C2163     Br2170   1.938       .  S
C2164      C2165   1.420       .  A
C2165      C2166   1.410       .  A
C2165     Br2172   1.937       .  S
C2166      C2167   1.410       .  A
C2166     Br2171   1.926       .  S
C2167      C2168   1.416       .  A
C2168     Br2169   1.924       .  S
C2173      C2174   1.412       .  A
C2173      C2178   1.413       .  A
C2173     Br2180   1.924       .  S
C2174      C2175   1.415       .  A
C2175      C2176   1.401       .  A
C2175     Br2182   1.942       .  S
C2176      C2177   1.414       .  A
C2176     Br2181   1.936       .  S
C2177      C2178   1.412       .  A
C2178     Br2179   1.932       .  S
C2183      C2184   1.414       .  A
C2183      C2188   1.407       .  A
C2183     Br2190   1.937       .  S
C2184      C2185   1.415       .  A
C2185      C2186   1.412       .  A
C2185     Br2192   1.928       .  S
C2186      C2187   1.411       .  A
C2186     Br2191   1.925       .  S
C2187      C2188   1.415       .  A
C2188     Br2189   1.929       .  S
C2193      C2194   1.419       .  A
C2193      C2198   1.411       .  A
C2193     Br2200   1.925       .  S
C2194      C2195   1.414       .  A
C2195      C2196   1.411       .  A
C2195     Br2202   1.923       .  S
C2196      C2197   1.409       .  A
C2196     Br2201   1.931       .  S
C2197      C2198   1.407       .  A
C2198     Br2199   1.932       .  S
C2203      C2204   1.424       .  A
C2203      C2208   1.409       .  A
C2203     Br2210   1.925       .  S
C2204      C2205   1.426       .  A
C2205      C2206   1.414       .  A
C2205     Br2212   1.938       .  S
C2206      C2207   1.406       .  A
C2206     Br2211   1.927       .  S
C2207      C2208   1.408       .  A
C2208     Br2209   1.942       .  S
C2213      C2214   1.404       .  A
C2213      C2218   1.406       .  A
C2213     Br2220   1.942       .  S
C2214      C2215   1.409       .  A
C2215      C2216   1.413       .  A
C2215     Br2222   1.945       .  S
C2216      C2217   1.437       .  A
C2216     Br2221   1.936       .  S
C2217      C2218   1.432       .  A
C2218     Br2219   1.926       .  S
C2223      C2224   1.412       .  A
C2223      C2228   1.414       .  A
C2223     Br2230   1.924       .  S
C2224      C2225   1.414       .  A
C2225      C2226   1.404       .  A
C2225     Br2232   1.941       .  S
C2226      C2227   1.416       .  A
C2226     Br2231   1.939       .  S
C2227      C2228   1.414       .  A
C2228     Br2229   1.930       .  S
C2233      C2234   1.422       .  A
C2233      C2238   1.414       .  A
C2233     Br2240   1.930       .  S
C2234      C2235   1.420       .  A
C2235      C2236   1.415       .  A
C2235     Br2242   1.924       .  S
C2236      C2237   1.410       .  A
C2236     Br2241   1.936       .  S
C2237      C2238   1.408       .  A
C2238     Br2239   1.932       .  S
C2243      C2244   1.422       .  A
C2243      C2248   1.408       .  A
C2243     Br2250   1.923       .  S
C2244      C2245   1.418       .  A
C2245      C2246   1.413       .  A
C2245     Br2252   1.925       .  S
C2246      C2247   1.411       .  A
C2246     Br2251   1.935       .  S
C2247      C2248   1.405       .  A
C2248     Br2249   1.936   1_556  S
C2253      C2254   1.424       .  A
C2253      C2258   1.399       .  A
C2253     Br2260   1.935       .  S
C2254      C2255   1.418       .  A
C2255      C2256   1.416       .  A
C2255     Br2262   1.928       .  S
C2256      C2257   1.419       .  A
C2256     Br2261   1.932       .  S
C2257      C2258   1.412       .  A
C2258     Br2259   1.943       .  S
C2263      C2264   1.424       .  A
C2263      C2268   1.413       .  A
C2263     Br2270   1.939       .  S
C2264      C2265   1.414       .  A
C2265      C2266   1.415       .  A
C2265     Br2272   1.930       .  S
C2266      C2267   1.417       .  A
C2266     Br2271   1.933       .  S
C2267      C2268   1.413       .  A
C2268     Br2269   1.936       .  S
C2273      C2274   1.424       .  A
C2273      C2278   1.414       .  A
C2273     Br2280   1.928       .  S
C2274      C2275   1.434       .  A
C2275      C2276   1.402       .  A
C2275     Br2282   1.939       .  S
C2276      C2277   1.400       .  A
C2276     Br2281   1.936       .  S
C2277      C2278   1.412       .  A
C2278     Br2279   1.938       .  S
C2283      C2284   1.414       .  A
C2283      C2288   1.409       .  A
C2283     Br2290   1.921       .  S
C2284      C2285   1.412       .  A
C2285      C2286   1.413       .  A
C2285     Br2292   1.921       .  S
C2286      C2287   1.412       .  A
C2286     Br2291   1.932       .  S
C2287      C2288   1.406       .  A
C2288     Br2289   1.928       .  S
C2293      C2294   1.429       .  A
C2293      C2298   1.408       .  A
C2293     Br2300   1.940       .  S
C2294      C2295   1.429       .  A
C2295      C2296   1.414       .  A
C2295     Br2302   1.937       .  S
C2296      C2297   1.419       .  A
C2296     Br2301   1.945       .  S
C2297      C2298   1.411       .  A
C2298     Br2299   1.937       .  S
C2303      C2304   1.413       .  A
C2303      C2308   1.417       .  A
C2303     Br2310   1.930       .  S
C2304      C2305   1.411       .  A
C2305      C2306   1.415       .  A
C2305     Br2312   1.943       .  S
C2306      C2307   1.428       .  A
C2306     Br2311   1.923       .  S
C2307      C2308   1.421       .  A
C2308     Br2309   1.932       .  S
C2313      C2314   1.400       .  A
C2313      C2318   1.407       .  A
C2313     Br2320   1.936       .  S
C2314      C2315   1.407       .  A
C2315      C2316   1.414       .  A
C2315     Br2322   1.927       .  S
C2316      C2317   1.422       .  A
C2316     Br2321   1.927       .  S
C2317      C2318   1.434       .  A
C2318     Br2319   1.932       .  S
C2323      C2324   1.402       .  A
C2323      C2328   1.406       .  A
C2323     Br2330   1.929       .  S
C2324      C2325   1.406       .  A
C2325      C2326   1.416       .  A
C2325     Br2332   1.931       .  S
C2326      C2327   1.426       .  A
C2326     Br2331   1.930       .  S
C2327      C2328   1.425       .  A
C2328     Br2329   1.929       .  S
C2333      C2334   1.419       .  A
C2333      C2338   1.407       .  A
C2333     Br2340   1.939       .  S
C2334      C2335   1.416       .  A
C2335      C2336   1.415       .  A
C2335     Br2342   1.928       .  S
C2336      C2337   1.421       .  A
C2336     Br2341   1.937       .  S
C2337      C2338   1.423       .  A
C2338     Br2339   1.940       .  S
C2343      C2344   1.403       .  A
C2343      C2348   1.411       .  A
C2343     Br2350   1.929   1_455  S
C2344      C2345   1.401       .  A
C2345      C2346   1.404       .  A
C2345     Br2352   1.933       .  S
C2346      C2347   1.426       .  A
C2346     Br2351   1.930       .  S
C2347      C2348   1.427       .  A
C2348     Br2349   1.935       .  S
C2353      C2354   1.415       .  A
C2353      C2358   1.395       .  A
C2353     Br2360   1.926       .  S
C2354      C2355   1.421       .  A
C2355      C2356   1.414       .  A
C2355     Br2362   1.934       .  S
C2356      C2357   1.413       .  A
C2356     Br2361   1.933       .  S
C2357      C2358   1.407       .  A
C2358     Br2359   1.938       .  S
C2363      C2364   1.427       .  A
C2363      C2368   1.417       .  A
C2363     Br2370   1.929       .  S
C2364      C2365   1.430       .  A
C2365      C2366   1.401       .  A
C2365     Br2372   1.940       .  S
C2366      C2367   1.404       .  A
C2366     Br2371   1.938       .  S
C2367      C2368   1.417       .  A
C2368     Br2369   1.942       .  S
C2373      C2374   1.417       .  A
C2373      C2378   1.408       .  A
C2373     Br2380   1.918       .  S
C2374      C2375   1.412       .  A
C2375      C2376   1.412       .  A
C2375     Br2382   1.921       .  S
C2376      C2377   1.410       .  A
C2376     Br2381   1.932       .  S
C2377      C2378   1.404       .  A
C2378     Br2379   1.935       .  S
C2383      C2384   1.404       .  A
C2383      C2388   1.412       .  A
C2383     Br2390   1.936       .  S
C2384      C2385   1.405       .  A
C2385      C2386   1.410       .  A
C2385     Br2392   1.939   1_655  S
C2386      C2387   1.433       .  A
C2386     Br2391   1.933       .  S
C2387      C2388   1.435       .  A
C2388     Br2389   1.943       .  S
C2393      C2394   1.413       .  A
C2393      C2398   1.403       .  A
C2393     Br2400   1.926       .  S
C2394      C2395   1.410       .  A
C2395      C2396   1.413       .  A
C2395     Br2402   1.926       .  S
C2396      C2397   1.418       .  A
C2396     Br2401   1.934       .  S
C2397      C2398   1.410       .  A
C2398     Br2399   1.935       .  S
C2403      C2404   1.419       .  A
C2403      C2408   1.409       .  A
C2403     Br2410   1.937       .  S
C2404      C2405   1.409       .  A
C2405      C2406   1.413       .  A
C2405     Br2412   1.929       .  S
C2406      C2407   1.417       .  A
C2406     Br2411   1.933       .  S
C2407      C2408   1.411       .  A
C2408     Br2409   1.934       .  S
C2413      C2414   1.413       .  A
C2413      C2418   1.410       .  A
C2413     Br2420   1.926       .  S
C2414      C2415   1.418       .  A
C2415      C2416   1.410       .  A
C2415     Br2422   1.936       .  S
C2416      C2417   1.411       .  A
C2416     Br2421   1.931       .  S
C2417      C2418   1.413       .  A
C2418     Br2419   1.936       .  S
C2423      C2424   1.414       .  A
C2423      C2428   1.412       .  A
C2423     Br2430   1.927       .  S
C2424      C2425   1.419       .  A
C2425      C2426   1.413       .  A
C2425     Br2432   1.921       .  S
C2426      C2427   1.412       .  A
C2426     Br2431   1.938       .  S
C2427      C2428   1.418       .  A
C2428     Br2429   1.930       .  S
C2433      C2434   1.408       .  A
C2433      C2438   1.412       .  A
C2433     Br2440   1.939       .  S
C2434      C2435   1.411       .  A
C2435      C2436   1.412       .  A
C2435     Br2442   1.941       .  S
C2436      C2437   1.423       .  A
C2436     Br2441   1.926       .  S
C2437      C2438   1.430       .  A
C2438     Br2439   1.933       .  S
C2443      C2444   1.422       .  A
C2443      C2448   1.411       .  A
C2443     Br2450   1.933       .  S
C2444      C2445   1.425       .  A
C2445      C2446   1.408       .  A
C2445     Br2452   1.930       .  S
C2446      C2447   1.407       .  A
C2446     Br2451   1.936       .  S
C2447      C2448   1.407       .  A
C2448     Br2449   1.928       .  S
C2453      C2454   1.406       .  A
C2453      C2458   1.404       .  A
C2453     Br2460   1.941       .  S
C2454      C2455   1.414       .  A
C2455      C2456   1.414       .  A
C2455     Br2462   1.947   1_655  S
C2456      C2457   1.437       .  A
C2456     Br2461   1.941       .  S
C2457      C2458   1.427       .  A
C2458     Br2459   1.923       .  S
C2463      C2464   1.407       .  A
C2463      C2468   1.409       .  A
C2463     Br2470   1.931   1_455  S
C2464      C2465   1.399       .  A
C2465      C2466   1.403       .  A
C2465     Br2472   1.933       .  S
C2466      C2467   1.431       .  A
C2466     Br2471   1.940       .  S
C2467      C2468   1.418       .  A
C2468     Br2469   1.930       .  S
C2473      C2474   1.410       .  A
C2473      C2478   1.410       .  A
C2473     Br2480   1.927       .  S
C2474      C2475   1.411       .  A
C2475      C2476   1.411       .  A
C2475     Br2482   1.928       .  S
C2476      C2477   1.410       .  A
C2476     Br2481   1.932       .  S
C2477      C2478   1.409       .  A
C2478     Br2479   1.930       .  S
C2483      C2484   1.409       .  A
C2483      C2488   1.423       .  A
C2483     Br2490   1.931       .  S
C2484      C2485   1.408       .  A
C2485      C2486   1.400       .  A
C2485     Br2492   1.937       .  S
C2486      C2487   1.415       .  A
C2486     Br2491   1.923       .  S
C2487      C2488   1.427       .  A
C2488     Br2489   1.921       .  S
C2493      C2494   1.410       .  A
C2493      C2498   1.416       .  A
C2493     Br2500   1.922       .  S
C2494      C2495   1.409       .  A
C2495      C2496   1.399       .  A
C2495     Br2502   1.938       .  S
C2496      C2497   1.419       .  A
C2496     Br2501   1.932       .  S
C2497      C2498   1.421       .  A
C2498     Br2499   1.932       .  S
C2503      C2504   1.409       .  A
C2503      C2508   1.414       .  A
C2503     Br2510   1.933       .  S
C2504      C2505   1.404       .  A
C2505      C2506   1.409       .  A
C2505     Br2512   1.932       .  S
C2506      C2507   1.424       .  A
C2506     Br2511   1.935       .  S
C2507      C2508   1.422       .  A
C2508     Br2509   1.928       .  S
C2513      C2514   1.410       .  A
C2513      C2518   1.415       .  A
C2513     Br2520   1.931       .  S
C2514      C2515   1.413       .  A
C2515      C2516   1.414       .  A
C2515     Br2522   1.931       .  S
C2516      C2517   1.413       .  A
C2516     Br2521   1.926       .  S
C2517      C2518   1.421       .  A
C2518     Br2519   1.934       .  S
C2523      C2524   1.405       .  A
C2523      C2528   1.410       .  A
C2523     Br2530   1.931       .  S
C2524      C2525   1.407       .  A
C2525      C2526   1.404       .  A
C2525     Br2532   1.936       .  S
C2526      C2527   1.416       .  A
C2526     Br2531   1.924       .  S
C2527      C2528   1.414       .  A
C2528     Br2529   1.915       .  S
C2533      C2534   1.409       .  A
C2533      C2538   1.414       .  A
C2533     Br2540   1.933       .  S
C2534      C2535   1.411       .  A
C2535      C2536   1.402       .  A
C2535     Br2542   1.937       .  S
C2536      C2537   1.416       .  A
C2536     Br2541   1.936       .  S
C2537      C2538   1.419       .  A
C2538     Br2539   1.925       .  S
C2543      C2544   1.409       .  A
C2543      C2548   1.414       .  A
C2543     Br2550   1.933       .  S
C2544      C2545   1.416       .  A
C2545      C2546   1.410       .  A
C2545     Br2552   1.937       .  S
C2546      C2547   1.415       .  A
C2546     Br2551   1.931       .  S
C2547      C2548   1.425       .  A
C2548     Br2549   1.937       .  S
C2553      C2554   1.405       .  A
C2553      C2558   1.408       .  A
C2553     Br2560   1.925       .  S
C2554      C2555   1.416       .  A
C2555      C2556   1.409       .  A
C2555     Br2562   1.926       .  S
C2556      C2557   1.410       .  A
C2556     Br2561   1.934       .  S
C2557      C2558   1.419       .  A
C2558     Br2559   1.931       .  S
C2563      C2564   1.423       .  A
C2563      C2568   1.413       .  A
C2563     Br2570   1.934       .  S
C2564      C2565   1.420       .  A
C2565      C2566   1.407       .  A
C2565     Br2572   1.925       .  S
C2566      C2567   1.408       .  A
C2566     Br2571   1.939       .  S
C2567      C2568   1.406       .  A
C2568     Br2569   1.931       .  S
C2573      C2574   1.409       .  A
C2573      C2578   1.411       .  A
C2573     Br2580   1.930       .  S
C2574      C2575   1.412       .  A
C2575      C2576   1.405       .  A
C2575     Br2582   1.927       .  S
C2576      C2577   1.409       .  A
C2576     Br2581   1.935       .  S
C2577      C2578   1.417       .  A
C2578     Br2579   1.931       .  S
C2583      C2584   1.433       .  A
C2583      C2588   1.411       .  A
C2583     Br2590   1.935       .  S
C2584      C2585   1.426       .  A
C2585      C2586   1.412       .  A
C2585     Br2592   1.934       .  S
C2586      C2587   1.406       .  A
C2586     Br2591   1.933       .  S
C2587      C2588   1.407       .  A
C2588     Br2589   1.944       .  S
C2593      C2594   1.420       .  A
C2593      C2598   1.410       .  A
C2593     Br2600   1.925       .  S
C2594      C2595   1.423       .  A
C2595      C2596   1.406       .  A
C2595     Br2602   1.933       .  S
C2596      C2597   1.408       .  A
C2596     Br2601   1.932       .  S
C2597      C2598   1.406       .  A
C2598     Br2599   1.931       .  S
C2603      C2604   1.405       .  A
C2603      C2608   1.408       .  A
C2603     Br2610   1.940       .  S
C2604      C2605   1.407       .  A
C2605      C2606   1.417       .  A
C2605     Br2612   1.929       .  S
C2606      C2607   1.423       .  A
C2606     Br2611   1.928       .  S
C2607      C2608   1.424       .  A
C2608     Br2609   1.924       .  S
C2613      C2614   1.406       .  A
C2613      C2618   1.409       .  A
C2613     Br2620   1.940       .  S
C2614      C2615   1.406       .  A
C2615      C2616   1.414       .  A
C2615     Br2622   1.941       .  S
C2616      C2617   1.438       .  A
C2616     Br2621   1.941       .  S
C2617      C2618   1.435       .  A
C2618     Br2619   1.939       .  S
C2623      C2624   1.416       .  A
C2623      C2628   1.413       .  A
C2623     Br2630   1.931       .  S
C2624      C2625   1.410       .  A
C2625      C2626   1.414       .  A
C2625     Br2632   1.927       .  S
C2626      C2627   1.424       .  A
C2626     Br2631   1.938       .  S
C2627      C2628   1.416       .  A
C2628     Br2629   1.934       .  S
C2633      C2634   1.418       .  A
C2633      C2638   1.411       .  A
C2633     Br2640   1.923       .  S
C2634      C2635   1.419       .  A
C2635      C2636   1.413       .  A
C2635     Br2642   1.937       .  S
C2636      C2637   1.416       .  A
C2636     Br2641   1.934   1_565  S
C2637      C2638   1.415       .  A
C2638     Br2639   1.941       .  S
C2643      C2644   1.440       .  A
C2643      C2648   1.409       .  A
C2643     Br2650   1.938       .  S
C2644      C2645   1.437       .  A
C2645      C2646   1.411       .  A
C2645     Br2652   1.929       .  S
C2646      C2647   1.403       .  A
C2646     Br2651   1.941       .  S
C2647      C2648   1.404       .  A
C2648     Br2649   1.947   1_565  S
C2653      C2654   1.427       .  A
C2653      C2658   1.411       .  A
C2653     Br2660   1.930       .  S
C2654      C2655   1.421       .  A
C2655      C2656   1.409       .  A
C2655     Br2662   1.927       .  S
C2656      C2657   1.406       .  A
C2656     Br2661   1.934       .  S
C2657      C2658   1.410       .  A
C2658     Br2659   1.943       .  S
C2663      C2664   1.423       .  A
C2663      C2668   1.404       .  A
C2663     Br2670   1.937       .  S
C2664      C2665   1.417       .  A
C2665      C2666   1.411       .  A
C2665     Br2672   1.928       .  S
C2666      C2667   1.418       .  A
C2666     Br2671   1.934       .  S
C2667      C2668   1.415       .  A
C2668     Br2669   1.942       .  S
C2673      C2674   1.415       .  A
C2673      C2678   1.408       .  A
C2673     Br2680   1.927       .  S
C2674      C2675   1.414       .  A
C2675      C2676   1.412       .  A
C2675     Br2682   1.931       .  S
C2676      C2677   1.409       .  A
C2676     Br2681   1.928       .  S
C2677      C2678   1.405       .  A
C2678     Br2679   1.931       .  S
C2683      C2684   1.427       .  A
C2683      C2688   1.415       .  A
C2683     Br2690   1.932       .  S
C2684      C2685   1.429       .  A
C2685      C2686   1.404       .  A
C2685     Br2692   1.933       .  S
C2686      C2687   1.403       .  A
C2686     Br2691   1.937       .  S
C2687      C2688   1.407       .  A
C2688     Br2689   1.932       .  S
C2693      C2694   1.421       .  A
C2693      C2698   1.399       .  A
C2693     Br2700   1.938       .  S
C2694      C2695   1.417       .  A
C2695      C2696   1.408       .  A
C2695     Br2702   1.935       .  S
C2696      C2697   1.413       .  A
C2696     Br2701   1.926       .  S
C2697      C2698   1.412       .  A
C2698     Br2699   1.941       .  S
C2703      C2704   1.416       .  A
C2703      C2708   1.411       .  A
C2703     Br2710   1.922       .  S
C2704      C2705   1.417       .  A
C2705      C2706   1.403       .  A
C2705     Br2712   1.940       .  S
C2706      C2707   1.417       .  A
C2706     Br2711   1.929       .  S
C2707      C2708   1.414       .  A
C2708     Br2709   1.935       .  S
C2713      C2714   1.407       .  A
C2713      C2718   1.412       .  A
C2713     Br2720   1.932       .  S
C2714      C2715   1.409       .  A
C2715      C2716   1.411       .  A
C2715     Br2722   1.938       .  S
C2716      C2717   1.422       .  A
C2716     Br2721   1.928       .  S
C2717      C2718   1.424       .  A
C2718     Br2719   1.935       .  S
C2723      C2724   1.406       .  A
C2723      C2728   1.417       .  A
C2723     Br2730   1.933       .  S
C2724      C2725   1.408       .  A
C2725      C2726   1.412       .  A
C2725     Br2732   1.938       .  S
C2726      C2727   1.421       .  A
C2726     Br2731   1.922       .  S
C2727      C2728   1.427       .  A
C2728     Br2729   1.928       .  S
C2733      C2734   1.408       .  A
C2733      C2738   1.404       .  A
C2733     Br2740   1.938       .  S
C2734      C2735   1.416       .  A
C2735      C2736   1.409       .  A
C2735     Br2742   1.936       .  S
C2736      C2737   1.412       .  A
C2736     Br2741   1.926       .  S
C2737      C2738   1.420       .  A
C2738     Br2739   1.925       .  S
C2743      C2744   1.405       .  A
C2743      C2748   1.402       .  A
C2743     Br2750   1.937       .  S
C2744      C2745   1.403       .  A
C2745      C2746   1.409       .  A
C2745     Br2752   1.932       .  S
C2746      C2747   1.416       .  A
C2746     Br2751   1.916       .  S
C2747      C2748   1.415       .  A
C2748     Br2749   1.924       .  S
C2753      C2754   1.406       .  A
C2753      C2758   1.410       .  A
C2753     Br2760   1.924   1_565  S
C2754      C2755   1.403       .  A
C2755      C2756   1.408       .  A
C2755     Br2762   1.934       .  S
C2756      C2757   1.425       .  A
C2756     Br2761   1.923       .  S
C2757      C2758   1.420       .  A
C2758     Br2759   1.932       .  S
C2763      C2764   1.405       .  A
C2763      C2768   1.406       .  A
C2763     Br2770   1.925       .  S
C2764      C2765   1.405       .  A
C2765      C2766   1.405       .  A
C2765     Br2772   1.933       .  S
C2766      C2767   1.424       .  A
C2766     Br2771   1.933       .  S
C2767      C2768   1.418       .  A
C2768     Br2769   1.933       .  S
C2773      C2774   1.425       .  A
C2773      C2778   1.410       .  A
C2773     Br2780   1.930       .  S
C2774      C2775   1.427       .  A
C2775      C2776   1.411       .  A
C2775     Br2782   1.933       .  S
C2776      C2777   1.404       .  A
C2776     Br2781   1.934       .  S
C2777      C2778   1.409       .  A
C2778     Br2779   1.940       .  S
C2783      C2784   1.412       .  A
C2783      C2788   1.408       .  A
C2783     Br2790   1.937       .  S
C2784      C2785   1.410       .  A
C2785      C2786   1.415       .  A
C2785     Br2792   1.931       .  S
C2786      C2787   1.425       .  A
C2786     Br2791   1.936       .  S
C2787      C2788   1.418       .  A
C2788     Br2789   1.924       .  S
C2793      C2794   1.427       .  A
C2793      C2798   1.415       .  A
C2793     Br2800   1.928       .  S
C2794      C2795   1.425       .  A
C2795      C2796   1.411       .  A
C2795     Br2802   1.932       .  S
C2796      C2797   1.405       .  A
C2796     Br2801   1.932       .  S
C2797      C2798   1.404       .  A
C2798     Br2799   1.933       .  S
C2803      C2804   1.410       .  A
C2803      C2808   1.408       .  A
C2803     Br2810   1.934       .  S
C2804      C2805   1.424       .  A
C2805      C2806   1.415       .  A
C2805     Br2812   1.934       .  S
C2806      C2807   1.409       .  A
C2806     Br2811   1.927       .  S
C2807      C2808   1.417       .  A
C2808     Br2809   1.919       .  S
C2813      C2814   1.414       .  A
C2813      C2818   1.399       .  A
C2813     Br2820   1.940       .  S
C2814      C2815   1.415       .  A
C2815      C2816   1.412       .  A
C2815     Br2822   1.935       .  S
C2816      C2817   1.415       .  A
C2816     Br2821   1.925       .  S
C2817      C2818   1.418       .  A
C2818     Br2819   1.934       .  S
C2823      C2824   1.416       .  A
C2823      C2828   1.395       .  A
C2823     Br2830   1.916       .  S
C2824      C2825   1.422       .  A
C2825      C2826   1.412       .  A
C2825     Br2832   1.933       .  S
C2826      C2827   1.407       .  A
C2826     Br2831   1.929       .  S
C2827      C2828   1.400       .  A
C2828     Br2829   1.936       .  S
C2833      C2834   1.408       .  A
C2833      C2838   1.417       .  A
C2833     Br2840   1.934       .  S
C2834      C2835   1.411       .  A
C2835      C2836   1.415       .  A
C2835     Br2842   1.938       .  S
C2836      C2837   1.426       .  A
C2836     Br2841   1.928       .  S
C2837      C2838   1.428       .  A
C2838     Br2839   1.934       .  S
C2843      C2844   1.412       .  A
C2843      C2848   1.409       .  A
C2843     Br2850   1.935       .  S
C2844      C2845   1.412       .  A
C2845      C2846   1.412       .  A
C2845     Br2852   1.935       .  S
C2846      C2847   1.415       .  A
C2846     Br2851   1.925       .  S
C2847      C2848   1.419       .  A
C2848     Br2849   1.937       .  S
C2853      C2854   1.407       .  A
C2853      C2858   1.408       .  A
C2853     Br2860   1.935       .  S
C2854      C2855   1.409       .  A
C2855      C2856   1.406       .  A
C2855     Br2862   1.936       .  S
C2856      C2857   1.419       .  A
C2856     Br2861   1.934       .  S
C2857      C2858   1.428       .  A
C2858     Br2859   1.942       .  S
C2863      C2864   1.416       .  A
C2863      C2868   1.401       .  A
C2863     Br2870   1.926       .  S
C2864      C2865   1.414       .  A
C2865      C2866   1.407       .  A
C2865     Br2872   1.920       .  S
C2866      C2867   1.404       .  A
C2866     Br2871   1.932       .  S
C2867      C2868   1.403       .  A
C2868     Br2869   1.936       .  S
C2873      C2874   1.404       .  A
C2873      C2878   1.407       .  A
C2873     Br2880   1.932       .  S
C2874      C2875   1.406       .  A
C2875      C2876   1.409       .  A
C2875     Br2882   1.933       .  S
C2876      C2877   1.422       .  A
C2876     Br2881   1.934       .  S
C2877      C2878   1.429       .  A
C2878     Br2879   1.941       .  S
C2883      C2884   1.413       .  A
C2883      C2888   1.410       .  A
C2883     Br2890   1.946       .  S
C2884      C2885   1.408       .  A
C2885      C2886   1.404       .  A
C2885     Br2892   1.939       .  S
C2886      C2887   1.429       .  A
C2886     Br2891   1.940       .  S
C2887      C2888   1.427       .  A
C2888     Br2889   1.925       .  S
C2893      C2894   1.421       .  A
C2893      C2898   1.418       .  A
C2893     Br2900   1.927       .  S
C2894      C2895   1.420       .  A
C2895      C2896   1.410       .  A
C2895     Br2902   1.928       .  S
C2896      C2897   1.410       .  A
C2896     Br2901   1.936       .  S
C2897      C2898   1.415       .  A
C2898     Br2899   1.935       .  S
C2903      C2904   1.406       .  A
C2903      C2908   1.411       .  A
C2903     Br2910   1.934       .  S
C2904      C2905   1.405       .  A
C2905      C2906   1.414       .  A
C2905     Br2912   1.935       .  S
C2906      C2907   1.430       .  A
C2906     Br2911   1.931       .  S
C2907      C2908   1.421       .  A
C2908     Br2909   1.922       .  S
C2913      C2914   1.424       .  A
C2913      C2918   1.404       .  A
C2913     Br2920   1.933       .  S
C2914      C2915   1.412       .  A
C2915      C2916   1.405       .  A
C2915     Br2922   1.935       .  S
C2916      C2917   1.415       .  A
C2916     Br2921   1.937       .  S
C2917      C2918   1.401       .  A
C2918     Br2919   1.931       .  S
C2923      C2924   1.409       .  A
C2923      C2928   1.415       .  A
C2923     Br2930   1.922       .  S
C2924      C2925   1.407       .  A
C2925      C2926   1.402       .  A
C2925     Br2932   1.932       .  S
C2926      C2927   1.422       .  A
C2926     Br2931   1.942       .  S
C2927      C2928   1.417       .  A
C2928     Br2929   1.930       .  S
C2933      C2934   1.415       .  A
C2933      C2938   1.415       .  A
C2933     Br2940   1.928       .  S
C2934      C2935   1.421       .  A
C2935      C2936   1.404       .  A
C2935     Br2942   1.929       .  S
C2936      C2937   1.412       .  A
C2936     Br2941   1.938       .  S
C2937      C2938   1.415       .  A
C2938     Br2939   1.932       .  S
C2943      C2944   1.439       .  A
C2943      C2948   1.413       .  A
C2943     Br2950   1.935       .  S
C2944      C2945   1.426       .  A
C2945      C2946   1.402       .  A
C2945     Br2952   1.917       .  S
C2946      C2947   1.399       .  A
C2946     Br2951   1.939       .  S
C2947      C2948   1.402       .  A
C2948     Br2949   1.939       .  S
C2953      C2954   1.423       .  A
C2953      C2958   1.414       .  A
C2953     Br2960   1.930       .  S
C2954      C2955   1.419       .  A
C2955      C2956   1.412       .  A
C2955     Br2962   1.925       .  S
C2956      C2957   1.414       .  A
C2956     Br2961   1.939       .  S
C2957      C2958   1.407       .  A
C2958     Br2959   1.933       .  S
C2963      C2964   1.420       .  A
C2963      C2968   1.412       .  A
C2963     Br2970   1.927       .  S
C2964      C2965   1.422       .  A
C2965      C2966   1.411       .  A
C2965     Br2972   1.925       .  S
C2966      C2967   1.406       .  A
C2966     Br2971   1.933       .  S
C2967      C2968   1.412       .  A
C2968     Br2969   1.936       .  S
C2973      C2974   1.415       .  A
C2973      C2978   1.407       .  A
C2973     Br2980   1.927       .  S
C2974      C2975   1.422       .  A
C2975      C2976   1.407       .  A
C2975     Br2982   1.939       .  S
C2976      C2977   1.408       .  A
C2976     Br2981   1.933       .  S
C2977      C2978   1.411       .  A
C2978     Br2979   1.937       .  S
C2983      C2984   1.414       .  A
C2983      C2988   1.405       .  A
C2983     Br2990   1.933       .  S
C2984      C2985   1.408       .  A
C2985      C2986   1.407       .  A
C2985     Br2992   1.930       .  S
C2986      C2987   1.414       .  A
C2986     Br2991   1.934       .  S
C2987      C2988   1.408       .  A
C2988     Br2989   1.934       .  S
C2993      C2994   1.420       .  A
C2993      C2998   1.409       .  A
C2993     Br3000   1.938       .  S
C2994      C2995   1.413       .  A
C2995      C2996   1.406       .  A
C2995     Br3002   1.928       .  S
C2996      C2997   1.420       .  A
C2996     Br3001   1.935       .  S
C2997      C2998   1.425       .  A
C2998     Br2999   1.943       .  S
C3003      C3004   1.402       .  A
C3003      C3008   1.398       .  A
C3003     Br3010   1.934       .  S
C3004      C3005   1.410       .  A
C3005      C3006   1.416       .  A
C3005     Br3012   1.930       .  S
C3006      C3007   1.424       .  A
C3006     Br3011   1.933       .  S
C3007      C3008   1.421       .  A
C3008     Br3009   1.924       .  S
C3013      C3014   1.423       .  A
C3013      C3018   1.413       .  A
C3013     Br3020   1.930       .  S
C3014      C3015   1.432       .  A
C3015      C3016   1.417       .  A
C3015     Br3022   1.935       .  S
C3016      C3017   1.407       .  A
C3016     Br3021   1.934       .  S
C3017      C3018   1.412       .  A
C3018     Br3019   1.932       .  S
C3023      C3024   1.422       .  A
C3023      C3028   1.412       .  A
C3023     Br3030   1.923       .  S
C3024      C3025   1.423       .  A
C3025      C3026   1.417       .  A
C3025     Br3032   1.926       .  S
C3026      C3027   1.408       .  A
C3026     Br3031   1.932       .  S
C3027      C3028   1.410       .  A
C3028     Br3029   1.939       .  S
C3033      C3034   1.408       .  A
C3033      C3038   1.408       .  A
C3033     Br3040   1.939       .  S
C3034      C3035   1.410       .  A
C3035      C3036   1.410       .  A
C3035     Br3042   1.934       .  S
C3036      C3037   1.420       .  A
C3036     Br3041   1.934       .  S
C3037      C3038   1.425       .  A
C3038     Br3039   1.938       .  S
C3043      C3044   1.406       .  A
C3043      C3048   1.408       .  A
C3043     Br3050   1.926       .  S
C3044      C3045   1.409       .  A
C3045      C3046   1.406       .  A
C3045     Br3052   1.936       .  S
C3046      C3047   1.416       .  A
C3046     Br3051   1.927       .  S
C3047      C3048   1.410       .  A
C3048     Br3049   1.916       .  S
C3053      C3054   1.424       .  A
C3053      C3058   1.402       .  A
C3053     Br3060   1.926       .  S
C3054      C3055   1.426       .  A
C3055      C3056   1.410       .  A
C3055     Br3062   1.934       .  S
C3056      C3057   1.403       .  A
C3056     Br3061   1.931       .  S
C3057      C3058   1.401       .  A
C3058     Br3059   1.936       .  S
C3063      C3064   1.420       .  A
C3063      C3068   1.416       .  A
C3063     Br3070   1.923       .  S
C3064      C3065   1.427       .  A
C3065      C3066   1.401       .  A
C3065     Br3072   1.939       .  S
C3066      C3067   1.408       .  A
C3066     Br3071   1.941       .  S
C3067      C3068   1.412       .  A
C3068     Br3069   1.933       .  S
C3073      C3074   1.403       .  A
C3073      C3078   1.408       .  A
C3073     Br3080   1.933       .  S
C3074      C3075   1.409       .  A
C3075      C3076   1.412       .  A
C3075     Br3082   1.935       .  S
C3076      C3077   1.420       .  A
C3076     Br3081   1.928       .  S
C3077      C3078   1.423       .  A
C3078     Br3079   1.933       .  S
C3083      C3084   1.413       .  A
C3083      C3088   1.410       .  A
C3083     Br3090   1.940       .  S
C3084      C3085   1.409       .  A
C3085      C3086   1.412       .  A
C3085     Br3092   1.930       .  S
C3086      C3087   1.422       .  A
C3086     Br3091   1.937       .  S
C3087      C3088   1.418       .  A
C3088     Br3089   1.925       .  S
C3093      C3094   1.420       .  A
C3093      C3098   1.408       .  A
C3093     Br3100   1.936       .  S
C3094      C3095   1.429       .  A
C3095      C3096   1.408       .  A
C3095     Br3102   1.935       .  S
C3096      C3097   1.399       .  A
C3096     Br3101   1.929       .  S
C3097      C3098   1.411       .  A
C3098     Br3099   1.931       .  S
C3103      C3104   1.412       .  A
C3103      C3108   1.404       .  A
C3103     Br3110   1.935       .  S
C3104      C3105   1.405       .  A
C3105      C3106   1.408       .  A
C3105     Br3112   1.931       .  S
C3106      C3107   1.417       .  A
C3106     Br3111   1.930       .  S
C3107      C3108   1.411       .  A
C3108     Br3109   1.934       .  S
C3113      C3114   1.411       .  A
C3113      C3118   1.410       .  A
C3113     Br3120   1.946       .  S
C3114      C3115   1.406       .  A
C3115      C3116   1.407       .  A
C3115     Br3122   1.938       .  S
C3116      C3117   1.433       .  A
C3116     Br3121   1.938       .  S
C3117      C3118   1.432       .  A
C3118     Br3119   1.934       .  S
C3123      C3124   1.403       .  A
C3123      C3128   1.410       .  A
C3123     Br3130   1.941       .  S
C3124      C3125   1.405       .  A
C3125      C3126   1.406       .  A
C3125     Br3132   1.940   1_556  S
C3126      C3127   1.429       .  A
C3126     Br3131   1.929       .  S
C3127      C3128   1.439       .  A
C3128     Br3129   1.941       .  S
C3133      C3134   1.409       .  A
C3133      C3138   1.414       .  A
C3133     Br3140   1.936       .  S
C3134      C3135   1.417       .  A
C3135      C3136   1.412       .  A
C3135     Br3142   1.938       .  S
C3136      C3137   1.415       .  A
C3136     Br3141   1.928       .  S
C3137      C3138   1.423       .  A
C3138     Br3139   1.920       .  S
C3143      C3144   1.410       .  A
C3143      C3148   1.408       .  A
C3143     Br3150   1.933       .  S
C3144      C3145   1.405       .  A
C3145      C3146   1.412       .  A
C3145     Br3152   1.932       .  S
C3146      C3147   1.419       .  A
C3146     Br3151   1.921       .  S
C3147      C3148   1.415       .  A
C3148     Br3149   1.921       .  S
C3153      C3154   1.416       .  A
C3153      C3158   1.406       .  A
C3153     Br3160   1.925       .  S
C3154      C3155   1.406       .  A
C3155      C3156   1.407       .  A
C3155     Br3162   1.922       .  S
C3156      C3157   1.419       .  A
C3156     Br3161   1.937       .  S
C3157      C3158   1.410       .  A
C3158     Br3159   1.936       .  S
C3163      C3164   1.412       .  A
C3163      C3168   1.415       .  A
C3163     Br3170   1.934       .  S
C3164      C3165   1.402       .  A
C3165      C3166   1.408       .  A
C3165     Br3172   1.935       .  S
C3166      C3167   1.431       .  A
C3166     Br3171   1.933       .  S
C3167      C3168   1.423       .  A
C3168     Br3169   1.928       .  S
C3173      C3174   1.408       .  A
C3173      C3178   1.412       .  A
C3173     Br3180   1.931       .  S
C3174      C3175   1.406       .  A
C3175      C3176   1.404       .  A
C3175     Br3182   1.939       .  S
C3176      C3177   1.427       .  A
C3176     Br3181   1.936       .  S
C3177      C3178   1.422       .  A
C3178     Br3179   1.931       .  S
C3183      C3184   1.417       .  A
C3183      C3188   1.396       .  A
C3183     Br3190   1.940       .  S
C3184      C3185   1.419       .  A
C3185      C3186   1.415       .  A
C3185     Br3192   1.934       .  S
C3186      C3187   1.416       .  A
C3186     Br3191   1.932       .  S
C3187      C3188   1.409       .  A
C3188     Br3189   1.924       .  S
C3193      C3194   1.420       .  A
C3193      C3198   1.405       .  A
C3193     Br3200   1.941       .  S
C3194      C3195   1.414       .  A
C3195      C3196   1.414       .  A
C3195     Br3202   1.932       .  S
C3196      C3197   1.418       .  A
C3196     Br3201   1.933       .  S
C3197      C3198   1.410       .  A
C3198     Br3199   1.930       .  S
C3203      C3204   1.412       .  A
C3203      C3208   1.409       .  A
C3203     Br3210   1.938       .  S
C3204      C3205   1.409       .  A
C3205      C3206   1.416       .  A
C3205     Br3212   1.930       .  S
C3206      C3207   1.423       .  A
C3206     Br3211   1.934       .  S
C3207      C3208   1.414       .  A
C3208     Br3209   1.925       .  S
C3213      C3214   1.415       .  A
C3213      C3218   1.409       .  A
C3213     Br3220   1.934       .  S
C3214      C3215   1.424       .  A
C3215      C3216   1.408       .  A
C3215     Br3222   1.936       .  S
C3216      C3217   1.405       .  A
C3216     Br3221   1.924       .  S
C3217      C3218   1.409       .  A
C3218     Br3219   1.919       .  S
C3223      C3224   1.425       .  A
C3223      C3228   1.414       .  A
C3223     Br3230   1.939       .  S
C3224      C3225   1.414       .  A
C3225      C3226   1.408       .  A
C3225     Br3232   1.933       .  S
C3226      C3227   1.410       .  A
C3226     Br3231   1.918       .  S
C3227      C3228   1.410       .  A
C3228     Br3229   1.926       .  S
