geometry optimzed in LAMMPS
_audit_creation_date              2020-11-30 
_audit_creation_method            'lammps2cif' 
_symmetry_space_group_name_H-M    'P1' 
_symmetry_Int_Tables_number       1 
_symmetry_cell_setting            triclinic 
loop_ 
_symmetry_equiv_pos_as_xyz 
  x,y,z 
_cell_length_a                    42.4148987 
_cell_length_b                    43.22271352113769 
_cell_length_c                    43.08340645230447 
_cell_angle_alpha                 89.75815282284151 
_cell_angle_beta                  90.38440075537181 
_cell_angle_gamma                 90.28930396390835 
loop_ 
_atom_site_label 
_atom_site_type_symbol 
_atom_site_fract_x 
_atom_site_fract_y 
_atom_site_fract_z 
_atom_site_charge 
O1          O  0.52636711  0.04051949  0.84056320    -0.86600
O2          O  0.53352652  0.04241192  0.66408340    -0.86800
O3          O  0.59452411  0.03679629  0.74899440    -0.88500
O4          O  0.51901080  0.10476950  0.75796281    -0.87200
O5          O  0.46506123  0.10342223  0.75513431    -0.86800
O6          O  0.59554143  0.98366902  0.74711852    -0.88200
O7          O  0.55433968  0.07311291  0.70216805    -0.86700
O8          O  0.55660323  0.06630013  0.80461202    -0.86200
Zr9        Zr  0.53882130  0.05181288  0.75264262     2.84300
O10         O  0.49482304  0.05156557  0.71945715    -1.08200
O11         O  0.53860904  0.00688420  0.78349322    -1.08900
C12         C  0.54802584  0.06013530  0.83273018     1.06500
C13         C  0.55108541  0.06500757  0.67343643     1.06400
C14         C  0.60910195  0.01071718  0.74615011     1.09400
C15         C  0.49157388  0.11774198  0.75884465     1.07200
H16         H  0.55790249  0.00932027  0.70755572     0.32700
O17         O  0.53937782  0.00852815  0.72033063    -1.29200
H18         H  0.49230892  0.06703007  0.79667436     0.32400
O19         O  0.49322590  0.04947421  0.78300244    -1.30800
O20         O  0.46062466  0.97057881  0.66014051    -0.86600
O21         O  0.45323989  0.96827839  0.83552952    -0.88100
O22         O  0.55980550  0.94878459  0.70033651    -0.86700
O23         O  0.43365560  0.07094206  0.70042988    -0.86700
O24         O  0.42848575  0.06475380  0.79905173    -0.86500
O25         O  0.55884240  0.94669262  0.80181475    -0.86300
O26         O  0.46919082  0.90824801  0.74947777    -0.86600
O27         O  0.39501970  0.97904634  0.74299302    -0.86100
O28         O  0.52337367  0.90961296  0.75006194    -0.87200
O29         O  0.39581691  0.03141132  0.74889419    -0.86300
O30         O  0.53076119  0.97259136  0.66225655    -0.86700
O31         O  0.52914050  0.97010021  0.83921501    -0.86400
O32         O  0.45311819  0.03750722  0.83780602    -0.86100
O33         O  0.46077252  0.04544116  0.66236279    -0.86500
O34         O  0.43426286  0.94182445  0.69671561    -0.86800
O35         O  0.42749206  0.94289205  0.79591113    -0.88100
Zr36       Zr  0.49511062  0.00766338  0.68757419     2.83100
Zr37       Zr  0.49205453  0.00430123  0.81302557     2.83500
Zr38       Zr  0.54056672  0.96391826  0.75086266     2.84100
Zr39       Zr  0.44968991  0.04934732  0.74986159     2.83400
Zr40       Zr  0.44977949  0.96128148  0.74746465     2.84200
O41         O  0.44824219  0.00438137  0.77998511    -1.08700
O42         O  0.49601240  0.96286314  0.71815246    -1.08200
C43         C  0.44121370  0.94884293  0.66843486     1.06500
C44         C  0.43248613  0.94890249  0.82481088     1.09100
C45         C  0.55259292  0.95417777  0.67170295     1.06600
C46         C  0.44097480  0.06582553  0.67198100     1.07000
C47         C  0.43305760  0.05768158  0.82773164     1.06600
C48         C  0.55115213  0.95168933  0.83033665     1.06100
C49         C  0.49652893  0.89518992  0.75062102     1.06500
C50         C  0.38128199  0.00567236  0.74456804     1.06100
H51         H  0.49419228  0.94285800  0.79319381     0.32700
O52         O  0.49418925  0.96131445  0.78044833    -1.29800
H53         H  0.43122798  0.00665199  0.70333623     0.32800
O54         O  0.44933499  0.00630909  0.71700435    -1.31200
C55         C  0.65224496  0.19994010  0.50584310    -0.02600
O56         O  0.55249862  0.08361777  0.30103439    -0.86600
O57         O  0.43958001  0.94886237  0.30155250    -0.86800
O58         O  0.45427860  0.05521366  0.33225635    -0.88500
O59         O  0.52883244  0.98107369  0.34035821    -0.87200
O60         O  0.55159820  0.95034209  0.30369899    -0.86800
O61         O  0.42992181  0.08056774  0.29172061    -0.88200
O62         O  0.46055308  0.98046906  0.33922798    -0.86700
O63         O  0.52773578  0.05485984  0.33849095    -0.86200
Zr64       Zr  0.49360547  0.01742131  0.31264559     2.84300
O65         O  0.49523119  0.97192586  0.28281216    -1.08200
O66         O  0.49339667  0.06043920  0.27971218    -1.08900
C67         C  0.54589493  0.07725226  0.32966542     1.06500
C68         C  0.44461262  0.95672999  0.33015383     1.06400
C69         C  0.43500581  0.07563246  0.32058088     1.09400
C70         C  0.54621904  0.95790104  0.33217737     1.07200
H71         H  0.43099460  0.01445576  0.29277083     0.32700
O72         O  0.44949510  0.01467720  0.27997684    -1.29200
H73         H  0.55706395  0.01718747  0.29662633     0.32400
O74         O  0.53917928  0.01670271  0.28252614    -1.30800
O75         O  0.43278855  0.95166909  0.20004086    -0.86600
O76         O  0.56086038  0.07699135  0.20052160    -0.88100
O77         O  0.39563668  0.03835854  0.25087081    -0.86700
O78         O  0.52218533  0.91691586  0.24381543    -0.86700
O79         O  0.59427628  0.98965658  0.25796227    -0.86500
O80         O  0.46612389  0.11144034  0.24665113    -0.86300
O81         O  0.46190950  0.05001066  0.15877998    -0.86600
O82         O  0.53439553  0.97848315  0.16358147    -0.86100
O83         O  0.43207536  0.07435578  0.19559843    -0.87200
O84         O  0.56455938  0.95871448  0.20261449    -0.86300
O85         O  0.39671067  0.98542589  0.25135490    -0.86700
O86         O  0.51976965  0.11397327  0.24523668    -0.86400
O87         O  0.59383480  0.04295824  0.25615101    -0.86100
O88         O  0.46815616  0.91630880  0.24350379    -0.86500
O89         O  0.45882004  0.97837405  0.16173488    -0.86800
O90         O  0.53764611  0.04729049  0.16283830    -0.88100
Zr91       Zr  0.45157088  0.96977897  0.24986752     2.83100
Zr92       Zr  0.53938015  0.06077575  0.25038471     2.83500
Zr93       Zr  0.44987038  0.05737189  0.24620238     2.84100
Zr94       Zr  0.54020703  0.97132570  0.25209211     2.83400
Zr95       Zr  0.49689616  0.01414661  0.18645842     2.84200
O96         O  0.54029278  0.01559969  0.22041092    -1.08700
O97         O  0.45080362  0.01272813  0.21624746    -1.08200
C98         C  0.43829038  0.95817817  0.17137562     1.06500
C99         C  0.55751379  0.06827613  0.17205668     1.09100
C100        C  0.38220083  0.01150770  0.25291080     1.06600
C101        C  0.49507534  0.90285942  0.24082709     1.07000
C102        C  0.60775650  0.01649465  0.25883026     1.06600
C103        C  0.49221530  0.12672885  0.24512796     1.06100
C104        C  0.44028260  0.06906914  0.16743272     1.06500
C105        C  0.55787591  0.96232056  0.17359138     1.06100
H106        H  0.49583067  0.07693363  0.20314434     0.32700
O107        O  0.49573891  0.05897010  0.21657362    -1.29800
H108        H  0.49712314  0.95283642  0.20550662     0.32800
O109        O  0.49661829  0.97065824  0.21885644    -1.31200
C110        C  0.30627851  0.85193942  0.00117733    -0.02600
C111        C  0.68102150  0.85157079  0.00472523    -0.02600
C112        C  0.64145737  0.81849731  0.50443877    -0.02600
C113        C  0.30814535  0.16523905  0.99567997    -0.02600
C114        C  0.68933561  0.16435030  0.99459066    -0.02600
C115        C  0.34414099  0.19532857  0.49863844    -0.02600
C116        C  0.34330976  0.81683750  0.49372391    -0.02600
O117        O  0.88962797  0.76660772  0.47133479    -0.86600
O118        O  0.02685989  0.76036424  0.58743134    -0.86800
O119        O  0.93134837  0.71479154  0.55808308    -0.88500
O120        O  0.93674090  0.81367610  0.56157848    -0.87200
O121        O  0.95673917  0.85092095  0.52966567    -0.86800
O122        O  0.95124213  0.67741883  0.52653376    -0.88200
O123        O  0.97318861  0.75878485  0.59157321    -0.86700
O124        O  0.89419422  0.76863930  0.52457939    -0.86200
Zr125      Zr  0.95007318  0.76397890  0.53921008     2.84300
O126        O  0.99532306  0.79470356  0.53641714    -1.08200
O127        O  0.94489705  0.73305302  0.49465626    -1.08900
C128        C  0.87817295  0.76917155  0.49887746     1.06500
C129        C  0.00134744  0.75802328  0.60345918     1.06400
C130        C  0.93377386  0.68656349  0.54921846     1.09400
C131        C  0.94035947  0.84213448  0.55327590     1.07200
H132        H  0.99487359  0.71829909  0.55337711     0.32700
O133        O  0.99381214  0.73172247  0.53533992    -1.29200
H134        H  0.92885723  0.80815842  0.49646392     0.32400
O135        O  0.94694939  0.79499102  0.49484498    -1.30800
O136        O  0.09254176  0.76703197  0.51099868    -0.86600
O137        O  0.95697098  0.76392129  0.39485434    -0.88100
O138        O  0.02545145  0.67429309  0.52542331    -0.86700
O139        O  0.03030511  0.84919204  0.52846881    -0.86700
O140        O  0.95271675  0.85260981  0.45976350    -0.86500
O141        O  0.95248464  0.67599324  0.45466182    -0.86300
O142        O  0.04981097  0.71482193  0.42653745    -0.86600
O143        O  0.04853381  0.81589644  0.42508104    -0.86100
O144        O  0.02745387  0.67730217  0.45696909    -0.87200
O145        O  0.02290511  0.85291861  0.45293049    -0.86300
O146        O  0.05774710  0.71136267  0.54716391    -0.86700
O147        O  0.92082932  0.71361086  0.43421705    -0.86400
O148        O  0.92221079  0.81533516  0.43694316    -0.86100
O149        O  0.05890323  0.81047024  0.55209287    -0.86500
O150        O  0.08884670  0.76751972  0.45802713    -0.86800
O151        O  0.01114846  0.76398115  0.39228128    -0.88100
Zr152      Zr  0.03924695  0.76237712  0.53215914     2.83100
Zr153      Zr  0.94254562  0.76428353  0.45014146     2.83500
Zr154      Zr  0.98918980  0.70138412  0.49082569     2.84100
Zr155      Zr  0.99163555  0.82642272  0.49234477     2.83400
Zr156      Zr  0.03253630  0.76503462  0.44464381     2.84200
O157        O  0.98759369  0.79597344  0.44751451    -1.08700
O158        O  0.03516326  0.73198339  0.48778418    -1.08200
C159        C  0.10486522  0.76880134  0.48366137     1.06500
C160        C  0.98337664  0.76291201  0.37993458     1.09100
C161        C  0.04860936  0.68319210  0.54286751     1.06600
C162        C  0.05167933  0.83893319  0.54748438     1.07000
C163        C  0.92936844  0.84383555  0.44245012     1.06600
C164        C  0.92892364  0.68489570  0.43767208     1.06100
C165        C  0.04620831  0.68646021  0.43531123     1.06500
C166        C  0.04181535  0.84434308  0.43125178     1.06100
H167        H  0.98608704  0.72053510  0.42874848     0.32700
O168        O  0.98735005  0.73337051  0.44699862    -1.29800
H169        H  0.05484985  0.80871977  0.48800513     0.32800
O170        O  0.03640133  0.79545504  0.48903609    -1.31200
O171        O  0.89961006  0.25675689  0.47711687    -0.86600
O172        O  0.02678229  0.26508355  0.59913778    -0.86800
O173        O  0.93715625  0.21437907  0.56612213    -0.88500
O174        O  0.93730212  0.31535223  0.56326260    -0.87200
O175        O  0.96643163  0.35275777  0.53838968    -0.86800
O176        O  0.95990015  0.17623228  0.53690632    -0.88200
O177        O  0.97291265  0.26886151  0.59924058    -0.86700
O178        O  0.90012124  0.26287733  0.52961736    -0.86200
Zr179      Zr  0.95474589  0.26450406  0.54592033     2.84300
O180        O  0.00029840  0.29490834  0.54566318    -1.08200
O181        O  0.95228641  0.23408343  0.50108456    -1.08900
C182        C  0.88595744  0.25721371  0.50377156     1.06500
C183        C  0.99998630  0.26866238  0.61300721     1.06400
C184        C  0.94179773  0.18572258  0.55911464     1.09400
C185        C  0.94516728  0.34375288  0.55760033     1.07200
H186        H  0.99894732  0.21887841  0.56351078     0.32700
O187        O  0.99866443  0.23194314  0.54524603    -1.29200
H188        H  0.93532975  0.30912336  0.50281671     0.32400
O189        O  0.95387699  0.29634576  0.50196871    -1.30800
O190        O  0.09832197  0.25894195  0.52563728    -0.86600
O191        O  0.96976694  0.27236131  0.40285748    -0.88100
O192        O  0.03274103  0.17452506  0.53320120    -0.86700
O193        O  0.03857215  0.35013577  0.53754991    -0.86700
O194        O  0.96080159  0.35298817  0.46791634    -0.86500
O195        O  0.96187680  0.17848409  0.46087099    -0.86300
O196        O  0.05501245  0.21551565  0.43301667    -0.86600
O197        O  0.06363536  0.31526941  0.44127098    -0.86100
O198        O  0.03294979  0.17794208  0.46346911    -0.87200
O199        O  0.03592806  0.35266252  0.46708929    -0.86300
O200        O  0.06298478  0.21093723  0.55807135    -0.86700
O201        O  0.93480379  0.21673173  0.43552873    -0.86400
O202        O  0.92988963  0.31623194  0.44383500    -0.86100
O203        O  0.06517296  0.31182249  0.56323488    -0.86500
O204        O  0.09632049  0.25787449  0.47226756    -0.86800
O205        O  0.02352309  0.27474674  0.40278412    -0.88100
Zr206      Zr  0.04428896  0.26260764  0.54468756     2.83100
Zr207      Zr  0.95229656  0.26602767  0.45697772     2.83500
Zr208      Zr  0.99621904  0.20197491  0.49981950     2.84100
Zr209      Zr  0.99976237  0.32684235  0.50177647     2.83400
Zr210      Zr  0.04184955  0.26514015  0.45579295     2.84200
O211        O  0.99767950  0.29706475  0.45670469    -1.08700
O212        O  0.04164321  0.23288257  0.49954970    -1.08200
C213        C  0.11098326  0.25626186  0.49856537     1.06500
C214        C  0.99647250  0.27631521  0.38892446     1.09100
C215        C  0.05525309  0.18270190  0.55167095     1.06600
C216        C  0.05936611  0.34057689  0.55755905     1.07000
C217        C  0.93750787  0.34449361  0.45013513     1.06600
C218        C  0.94216213  0.18809383  0.44005052     1.06100
C219        C  0.05027257  0.18696148  0.44048718     1.06500
C220        C  0.05729041  0.34359083  0.44813214     1.06100
H221        H  0.99592932  0.22237729  0.43678297     0.32700
O222        O  0.99646764  0.23425216  0.45568061    -1.29800
H223        H  0.06333222  0.30713305  0.50101176     0.32800
O224        O  0.04434779  0.29498978  0.50091280    -1.31200
C225        C  0.80856185  0.51087022  0.64846044    -0.02600
C226        C  0.18163359  0.52363538  0.65601867    -0.02600
C227        C  0.84545688  0.01759107  0.30349975    -0.02600
C228        C  0.84448960  0.01145271  0.68982282    -0.02600
C229        C  0.80350976  0.50594631  0.33393249    -0.02600
C230        C  0.17990874  0.51576050  0.34368567    -0.02600
C231        C  0.14602730  0.01831263  0.30266729    -0.02600
C232        C  0.14731233  0.00764983  0.68211341    -0.02600
O233        O  0.74172673  0.60828867  0.96136362    -0.86600
O234        O  0.74589885  0.48578379  0.08942811    -0.86800
O235        O  0.69027152  0.57350364  0.05295608    -0.88500
O236        O  0.79142087  0.57888234  0.04923649    -0.87200
O237        O  0.83013800  0.55095017  0.02540179    -0.86800
O238        O  0.65195808  0.54369157  0.03086501    -0.88200
O239        O  0.74729160  0.53900408  0.08800797    -0.86700
O240        O  0.73770053  0.60932737  0.01436436    -0.86200
Zr241      Zr  0.74133079  0.55632639  0.03420095     2.84300
O242        O  0.77352071  0.51241204  0.03508799    -1.08200
O243        O  0.70913736  0.55514787  0.99032421    -1.08900
C244        C  0.73871354  0.62255506  0.98739449     1.06500
C245        C  0.74868327  0.51260524  0.10216970     1.06400
C246        C  0.66130828  0.56469552  0.05002689     1.09400
C247        C  0.82051505  0.57292774  0.04350157     1.07200
H248        H  0.69760839  0.51166486  0.05507230     0.32700
O249        O  0.70991429  0.51167974  0.03631537    -1.29200
H250        H  0.78616877  0.57462545  0.98916844     0.32400
O251        O  0.77330797  0.55603066  0.99009560    -1.30800
O252        O  0.74045670  0.41397691  0.01971138    -0.86600
O253        O  0.74002671  0.53672920  0.89267268    -0.88100
O254        O  0.65145317  0.47510127  0.02825108    -0.86700
O255        O  0.83259379  0.47744615  0.02699201    -0.86700
O256        O  0.83073195  0.54750781  0.95412695    -0.86500
O257        O  0.65107339  0.55007728  0.96021893    -0.86300
O258        O  0.68643295  0.45143213  0.92772951    -0.86600
O259        O  0.78981897  0.44590796  0.93169861    -0.86100
O260        O  0.64917925  0.47736457  0.95586090    -0.87200
O261        O  0.82867037  0.47577442  0.95416174    -0.86300
O262        O  0.69046194  0.44966882  0.05531086    -0.86700
O263        O  0.69010681  0.57408136  0.93223612    -0.86400
O264        O  0.79203366  0.57070620  0.92556125    -0.86100
O265        O  0.79469988  0.45126882  0.05437136    -0.86500
O266        O  0.73325850  0.41339615  0.96737507    -0.86800
O267        O  0.74452160  0.48416646  0.89341980    -0.88100
Zr268      Zr  0.74203134  0.46772783  0.03625763     2.83100
Zr269      Zr  0.74111371  0.55417857  0.94626572     2.83500
Zr270      Zr  0.67701836  0.51104018  0.99233396     2.84100
Zr271      Zr  0.80515125  0.51204920  0.99085607     2.83400
Zr272      Zr  0.73906626  0.46641330  0.94753478     2.84200
O273        O  0.77222746  0.51007843  0.94697965    -1.08700
O274        O  0.70867676  0.46687807  0.99263473    -1.08200
C275        C  0.73541771  0.39961149  0.99400923     1.06500
C276        C  0.74379598  0.51054550  0.87902584     1.09100
C277        C  0.66117429  0.45568805  0.04906433     1.06600
C278        C  0.82386226  0.45751219  0.04772088     1.07000
C279        C  0.82132919  0.56591047  0.93223501     1.06600
C280        C  0.66116963  0.56983443  0.93997920     1.06100
C281        C  0.65751214  0.45835641  0.93437961     1.06500
C282        C  0.81896230  0.45354883  0.93636304     1.06100
H283        H  0.69445901  0.51123183  0.92879129     0.32700
O284        O  0.70773794  0.51080825  0.94698982    -1.29800
H285        H  0.78558926  0.44916636  0.99177835     0.32800
O286        O  0.77267987  0.46750375  0.99139883    -1.31200
O287        O  0.24934959  0.60703066  0.97898609    -0.86600
O288        O  0.23812571  0.47963095  0.09875010    -0.86800
O289        O  0.19306674  0.57223021  0.06334808    -0.88500
O290        O  0.29636761  0.56734835  0.06652785    -0.87200
O291        O  0.33421126  0.54061689  0.03984565    -0.86800
O292        O  0.15364750  0.54520062  0.03973115    -0.88200
O293        O  0.23989549  0.53278634  0.10033380    -0.86700
O294        O  0.24544594  0.60563699  0.03165228    -0.86200
Zr295      Zr  0.24395222  0.55175734  0.04719085     2.84300
O296        O  0.27436180  0.50675157  0.04618029    -1.08200
O297        O  0.21215032  0.55463411  0.00260936    -1.08900
C298        C  0.24873339  0.62030889  0.00584475     1.06500
C299        C  0.23741537  0.50585632  0.11317280     1.06400
C300        C  0.16360998  0.56581639  0.05901584     1.09400
C301        C  0.32535484  0.56023484  0.06058227     1.07200
H302        H  0.19635847  0.50866195  0.06365302     0.32700
O303        O  0.20974726  0.50913967  0.04558302    -1.29200
H304        H  0.28961653  0.57054247  0.00392557     0.32400
O305        O  0.27588173  0.55274104  0.00314508    -1.30800
O306        O  0.24021480  0.41095405  0.02458413    -0.86600
O307        O  0.23699628  0.53720079  0.90412760    -0.88100
O308        O  0.15012517  0.47292548  0.03361012    -0.86700
O309        O  0.32993033  0.46837547  0.03501027    -0.86700
O310        O  0.33263585  0.54672999  0.96765420    -0.86500
O311        O  0.15514966  0.55218708  0.96631562    -0.86300
O312        O  0.18896330  0.44909469  0.94140038    -0.86600
O313        O  0.29325793  0.45224068  0.93499122    -0.86100
O314        O  0.15107427  0.47846520  0.96526019    -0.87200
O315        O  0.33234850  0.47488085  0.96418238    -0.86300
O316        O  0.18778238  0.44538662  0.05994599    -0.86700
O317        O  0.19572449  0.57818875  0.94238292    -0.86400
O318        O  0.29474663  0.57173469  0.93995917    -0.86100
O319        O  0.28952753  0.44175348  0.05821244    -0.86500
O320        O  0.24657578  0.41224761  0.97219043    -0.86800
O321        O  0.23717625  0.48432787  0.90222284    -0.88100
Zr322      Zr  0.23969311  0.46414995  0.04389722     2.83100
Zr323      Zr  0.24413921  0.55435694  0.95852030     2.83500
Zr324      Zr  0.17799923  0.51196713  0.00126556     2.84100
Zr325      Zr  0.30663104  0.50830564  0.00176604     2.83400
Zr326      Zr  0.24161207  0.46671882  0.95585045     2.84200
O327        O  0.27522704  0.50997129  0.95667947    -1.08700
O328        O  0.20842072  0.46658415  0.99932465    -1.08200
C329        C  0.24530972  0.39751594  0.99839980     1.06500
C330        C  0.23436579  0.51117046  0.88931906     1.09100
C331        C  0.15875814  0.45123002  0.05280380     1.06600
C332        C  0.31885717  0.44656633  0.05255447     1.07000
C333        C  0.32373119  0.56720026  0.94737566     1.06600
C334        C  0.16634459  0.57315848  0.94754228     1.06100
C335        C  0.16017199  0.45692449  0.94692063     1.06500
C336        C  0.32263149  0.45720163  0.94194879     1.06100
H337        H  0.19689851  0.51247433  0.93945308     0.32700
O338        O  0.21043258  0.51149719  0.95741539    -1.29800
H339        H  0.28545829  0.44706174  0.99946996     0.32800
O340        O  0.27269053  0.46542606  0.00038117    -1.31200
C341        C  0.99712943  0.69857479  0.83582833    -0.02600
C342        C  0.99347570  0.31899319  0.84637018    -0.02600
C343        C  0.49139070  0.66262745  0.80356702    -0.02600
C344        C  0.49868565  0.66862018  0.19164605    -0.02600
C345        C  0.98770759  0.31452054  0.15309905    -0.02600
C346        C  0.99298078  0.70223784  0.15044009    -0.02600
C347        C  0.48401552  0.35094949  0.80448288    -0.02600
C348        C  0.48936026  0.35825732  0.18658872    -0.02600
O349        O  0.55563313  0.43553245  0.53079701    -0.86600
O350        O  0.45165661  0.49698133  0.40144644    -0.86800
O351        O  0.47866402  0.41431517  0.46089337    -0.88500
O352        O  0.56309522  0.47184813  0.43176284    -0.87200
O353        O  0.57865741  0.52182174  0.44191226    -0.86800
O354        O  0.44600551  0.41972203  0.50237776    -0.88200
O355        O  0.48811097  0.45834081  0.40712612    -0.86700
O356        O  0.54011341  0.42113349  0.48218122    -0.86200
Zr357      Zr  0.51141591  0.46191665  0.45825114     2.84300
O358        O  0.50796879  0.51367265  0.44292536    -1.08200
O359        O  0.49643251  0.45652318  0.51015422    -1.08900
C360        C  0.55472255  0.41614760  0.50772085     1.06500
C361        C  0.46591002  0.47221531  0.39209145     1.06400
C362        C  0.45693591  0.40434708  0.47958220     1.09400
C363        C  0.58277227  0.49512468  0.42972256     1.07200
H364        H  0.44531547  0.46497558  0.45221519     0.32700
O365        O  0.45923151  0.47777401  0.46457828    -1.29200
H366        H  0.56574438  0.48408794  0.48881481     0.32400
O367        O  0.54439641  0.49125017  0.49052485    -1.30800
O368        O  0.42429443  0.57617695  0.45996553    -0.86600
O369        O  0.52500785  0.51534019  0.59209484    -0.88100
O370        O  0.39554695  0.47698108  0.48589776    -0.86700
O371        O  0.53176411  0.57286408  0.42796127    -0.86700
O372        O  0.58987228  0.54093035  0.50616696    -0.86500
O373        O  0.45379579  0.44840691  0.56846440    -0.86300
O374        O  0.42150796  0.54425589  0.55934710    -0.86600
O375        O  0.50496941  0.60127710  0.53281004    -0.86100
O376        O  0.40813657  0.49339608  0.55289746    -0.87200
O377        O  0.54445787  0.59454523  0.49727934    -0.86300
O378        O  0.40180601  0.51293554  0.44696233    -0.86700
O379        O  0.50681258  0.44590700  0.57412336    -0.86400
O380        O  0.58335788  0.50279832  0.54260857    -0.86100
O381        O  0.48081031  0.56350357  0.41185570    -0.86500
O382        O  0.43748417  0.59139001  0.50914652    -0.86800
O383        O  0.49035065  0.55567727  0.58537178    -0.88100
Zr384      Zr  0.45559027  0.52947720  0.44872329     2.83100
Zr385      Zr  0.52918570  0.48572451  0.54222005     2.83500
Zr386      Zr  0.44484370  0.47280012  0.51683938     2.84100
Zr387      Zr  0.54030002  0.54330353  0.47599934     2.83400
Zr388      Zr  0.47236640  0.55427041  0.53231506     2.84200
O389        O  0.52484951  0.53789131  0.52774160    -1.08700
O390        O  0.44007275  0.52413868  0.50063022    -1.08200
C391        C  0.42211924  0.59460218  0.48353836     1.06500
C392        C  0.50945474  0.53935161  0.60188275     1.09100
C393        C  0.38533877  0.49372554  0.46289195     1.06600
C394        C  0.50835918  0.57574342  0.40877577     1.07000
C395        C  0.59978474  0.52395604  0.52906038     1.06600
C396        C  0.47894459  0.44125905  0.58417867     1.06100
C397        C  0.40292108  0.52054867  0.56338097     1.06500
C398        C  0.52980019  0.61024802  0.51790146     1.06100
H399        H  0.47060838  0.50160819  0.56941209     0.32700
O400        O  0.47732854  0.50302783  0.54803616    -1.29800
H401        H  0.48681240  0.58151775  0.47405343     0.32800
O402        O  0.48814910  0.56011619  0.48046860    -1.31200
O403        O  0.06469597  0.94640814  0.03831088    -0.86600
O404        O  0.00696117  0.03440874  0.89666573    -0.86800
O405        O  0.03257118  0.93159067  0.93877683    -0.88500
O406        O  0.09323600  0.01449621  0.96302896    -0.87200
O407        O  0.08064740  0.05853446  0.98889095    -0.86800
O408        O  0.97950890  0.92382999  0.93928596    -0.88200
O409        O  0.04719714  0.00025748  0.90748332    -0.86700
O410        O  0.08239147  0.95391395  0.98855821    -0.86200
Zr411      Zr  0.04310179  0.98391622  0.96063952     2.84300
O412        O  0.02644352  0.03573481  0.96097739    -1.08200
O413        O  0.00943766  0.95432797  0.99187205    -1.08900
C414        C  0.08574966  0.94414790  0.01670629     1.06500
C415        C  0.03187774  0.01869824  0.88946248     1.06400
C416        C  0.00749254  0.91520812  0.93269099     1.09400
C417        C  0.10047332  0.04127924  0.97487443     1.07200
H418        H  0.98899425  0.98057187  0.92162766     0.32700
O419        O  0.99066451  0.98842605  0.94252148    -1.29200
H420        H  0.06721681  0.00248598  0.01904587     0.32400
O421        O  0.04560965  0.00283025  0.01126392    -1.30800
O422        O  0.92813250  0.07430307  0.95132970    -0.86600
O423        O  0.98236909  0.97725284  0.09010197    -0.88100
O424        O  0.92615198  0.96710474  0.92748980    -0.86700
O425        O  0.02663182  0.10128501  0.97960889    -0.86700
O426        O  0.05914881  0.04635542  0.06061517    -0.86500
O427        O  0.95957940  0.91128584  0.00354877    -0.86300
O428        O  0.89359038  0.00177493  0.02220962    -0.86600
O429        O  0.95514788  0.07981845  0.05320918    -0.86100
O430        O  0.90371196  0.95814305  0.99418995    -0.87200
O431        O  0.00730698  0.09146991  0.04668620    -0.86300
O432        O  0.93464364  0.01660600  0.91013306    -0.86700
O433        O  0.99543883  0.91818135  0.04305796    -0.86400
O434        O  0.04598326  0.99847606  0.07963154    -0.86100
O435        O  0.99297742  0.09232687  0.93866512    -0.86500
O436        O  0.91040346  0.06638534  0.00079900    -0.86800
O437        O  0.94279963  0.01259664  0.08100307    -0.88100
Zr438      Zr  0.97408561  0.04003204  0.94352170     2.83100
Zr439      Zr  0.01286496  0.97231432  0.04255164     2.83500
Zr440      Zr  0.95718842  0.95999503  0.97489413     2.84100
Zr441      Zr  0.02930525  0.05414573  0.01178921     2.83400
Zr442      Zr  0.94451429  0.02951556  0.02709785     2.84200
O443        O  0.99680746  0.02427252  0.04368012    -1.08700
O444        O  0.94086653  0.01134802  0.97595623    -1.08200
C445        C  0.90920337  0.08006897  0.97413798     1.06500
C446        C  0.95865708  0.99384323  0.09847125     1.09100
C447        C  0.92113936  0.98988604  0.90865852     1.06600
C448        C  0.01116443  0.10975124  0.95503710     1.07000
C449        C  0.06080552  0.02444072  0.08119953     1.06600
C450        C  0.97621150  0.90146764  0.02669259     1.06100
C451        C  0.88497261  0.97614648  0.00899296     1.06500
C452        C  0.97966191  0.09768560  0.05681736     1.06100
H453        H  0.94661684  0.96476480  0.03915635     0.32700
O454        O  0.96012294  0.97719904  0.02619737    -1.29800
H455        H  0.97122508  0.07968649  0.99508542     0.32800
O456        O  0.97743955  0.05827046  0.99451283    -1.31200
C457        C  0.45718944  0.45739313  0.36205860     0.01200
C458        C  0.45575205  0.42470377  0.36053115     0.04000
C459        C  0.45907114  0.40947322  0.33204900    -0.12000
C460        C  0.46608438  0.42669277  0.30516613     0.23300
C461        C  0.46409153  0.45935380  0.30605897    -0.12600
C462        C  0.45684169  0.47435275  0.33410895     0.04700
C463        C  0.47178458  0.41018055  0.27545300     0.27100
C464        C  0.49864795  0.39200596  0.27160126    -0.13300
C465        C  0.50244682  0.37373591  0.24470979     0.05200
C466        C  0.48204008  0.37741879  0.21786632    -0.09300
C467        C  0.45349404  0.39561812  0.22368296     0.06100
C468        C  0.44846336  0.41016452  0.25261071    -0.13600
Br469      Br  0.47191462  0.48358640  0.26918563    -0.05700
Br470      Br  0.44729442  0.40055065  0.39712981    -0.00100
Br471      Br  0.53858416  0.34645646  0.24598594     0.00400
Br472      Br  0.40772784  0.42805702  0.26354912    -0.04000
Br473      Br  0.44186508  0.51633608  0.33342114     0.00500
Br474      Br  0.45370676  0.36503992  0.32974040    -0.03300
Br475      Br  0.53108851  0.39328869  0.30351107    -0.04200
Br476      Br  0.41566233  0.39855958  0.19822755    -0.00200
C477        C  0.47702558  0.42862743  0.61672001     0.01200
C478        C  0.50385679  0.43121578  0.63710084     0.04000
C479        C  0.50267591  0.41940180  0.66740847    -0.12000
C480        C  0.47432704  0.40783095  0.67937554     0.23300
C481        C  0.44721368  0.40656968  0.66034353    -0.12600
C482        C  0.44874533  0.41568109  0.62882420     0.04700
C483        C  0.47473565  0.39387551  0.71095779     0.27100
C484        C  0.47873341  0.36190824  0.71369393    -0.13300
C485        C  0.48647565  0.34852981  0.74252356     0.05200
C486        C  0.48410252  0.36606457  0.77086540    -0.09300
C487        C  0.48231008  0.39931957  0.76711277     0.06100
C488        C  0.47767211  0.41263828  0.73738582    -0.13600
Br489      Br  0.40815784  0.39150223  0.67762487    -0.05700
Br490      Br  0.54260826  0.45310421  0.62672935    -0.00100
Br491      Br  0.51078352  0.31105475  0.73816096     0.00400
Br492      Br  0.47354094  0.45690740  0.73259118    -0.04000
Br493      Br  0.41217153  0.40843723  0.60280263     0.00500
Br494      Br  0.54065990  0.41828833  0.69277530    -0.03300
Br495      Br  0.47688744  0.33664605  0.67651216    -0.04200
Br496      Br  0.48405304  0.42820929  0.80173218    -0.00200
C497        C  0.98842838  0.73171870  0.12798544     0.01200
C498        C  0.98754239  0.76373751  0.13803047     0.04000
C499        C  0.98949285  0.78803505  0.11621025    -0.12000
C500        C  0.98246690  0.78283724  0.08493962     0.23300
C501        C  0.97789897  0.75253668  0.07460469    -0.12600
C502        C  0.98365724  0.72724712  0.09477944     0.04700
C503        C  0.97772055  0.80990226  0.06389759     0.27100
C504        C  0.94980631  0.82742602  0.06601329    -0.13300
C505        C  0.94802958  0.85678565  0.05178010     0.05200
C506        C  0.97387658  0.86828698  0.03498558    -0.09300
C507        C  0.99894587  0.84835155  0.02806596     0.06100
C508        C  0.00177671  0.81979114  0.04364701    -0.13600
Br509      Br  0.96416025  0.74606680  0.03219979    -0.05700
Br510      Br  0.97474668  0.77907604  0.17823503    -0.00100
Br511      Br  0.91014318  0.88087196  0.05436701     0.00400
Br512      Br  0.03912938  0.79522694  0.03841148    -0.04000
Br513      Br  0.98740114  0.68766624  0.07399227     0.00500
Br514      Br  0.00079293  0.82955952  0.12924683    -0.03300
Br515      Br  0.91451610  0.81143111  0.08915534    -0.04200
Br516      Br  0.02679243  0.85886343  0.99455607    -0.00200
C517        C  0.98205395  0.28012044  0.14042480     0.01200
C518        C  0.00481148  0.25608500  0.14672596     0.04000
C519        C  0.00071601  0.22564480  0.13547756    -0.12000
C520        C  0.97466912  0.21798145  0.11697656     0.23300
C521        C  0.95136995  0.24002318  0.11138174    -0.12600
C522        C  0.95335291  0.26963797  0.12506429     0.04700
C523        C  0.97340916  0.18741047  0.10119507     0.27100
C524        C  0.99041770  0.18382551  0.07376136    -0.13300
C525        C  0.99332027  0.15460708  0.06019861     0.05200
C526        C  0.97652197  0.12856729  0.07223390    -0.09300
C527        C  0.95789877  0.13270350  0.09910947     0.06100
C528        C  0.95708325  0.16188457  0.11394839    -0.13600
Br529      Br  0.91615062  0.22882829  0.08476165    -0.05700
Br530      Br  0.04189736  0.26203476  0.17179499    -0.00100
Br531      Br  0.02182299  0.15207410  0.02565808     0.00400
Br532      Br  0.93431631  0.16702665  0.15214529    -0.04000
Br533      Br  0.91266667  0.28949545  0.12802312     0.00500
Br534      Br  0.03140858  0.19363191  0.14450532    -0.03300
Br535      Br  0.00990319  0.21955185  0.05453153    -0.04200
Br536      Br  0.93517407  0.09835414  0.11716044    -0.00200
C537        C  0.51311794  0.59277078  0.37964169     0.01200
C538        C  0.51459136  0.62528895  0.37895583     0.04000
C539        C  0.51387946  0.64099950  0.35020860    -0.12000
C540        C  0.50879996  0.62421537  0.32251059     0.23300
C541        C  0.50714567  0.59160436  0.32354478    -0.12600
C542        C  0.51144862  0.57603417  0.35179100     0.04700
C543        C  0.50862145  0.63978482  0.29167945     0.27100
C544        C  0.48288249  0.65710738  0.28146361    -0.13300
C545        C  0.48150523  0.66830740  0.25058926     0.05200
C546        C  0.50332109  0.65763804  0.22721404    -0.09300
C547        C  0.53100423  0.64123649  0.23966803     0.06100
C548        C  0.53370871  0.63463246  0.27174549    -0.13600
Br549      Br  0.49883332  0.56813858  0.28624870    -0.05700
Br550      Br  0.51689848  0.64801847  0.41730274    -0.00100
Br551      Br  0.44618703  0.69535540  0.24198276     0.00400
Br552      Br  0.57252178  0.61869161  0.29031226    -0.04000
Br553      Br  0.51749418  0.53180317  0.35243243     0.00500
Br554      Br  0.52061965  0.68512445  0.34872707    -0.03300
Br555      Br  0.44818323  0.66347571  0.30976495    -0.04200
Br556      Br  0.56981737  0.62978064  0.21828571    -0.00200
C557        C  0.51341053  0.55065745  0.63423812     0.01200
C558        C  0.49402501  0.53911297  0.65826202     0.04000
C559        C  0.49049097  0.55600081  0.68606819    -0.12000
C560        C  0.50673096  0.58422001  0.69021347     0.23300
C561        C  0.52794325  0.59446572  0.66737220    -0.12600
C562        C  0.53038463  0.57838698  0.63919844     0.04700
C563        C  0.50180903  0.60351379  0.71837483     0.27100
C564        C  0.48203395  0.62941977  0.71739786    -0.13300
C565        C  0.47862988  0.64867407  0.74385449     0.05200
C566        C  0.49691594  0.64329257  0.77198273    -0.09300
C567        C  0.52182072  0.62070758  0.76814884     0.06100
C568        C  0.52045285  0.59845629  0.74452250    -0.13600
Br569      Br  0.55309141  0.63119252  0.67450246    -0.05700
Br570      Br  0.47028377  0.50161519  0.65219438    -0.00100
Br571      Br  0.44588295  0.67935892  0.73975417     0.00400
Br572      Br  0.54655105  0.56177403  0.74658084    -0.04000
Br573      Br  0.55458907  0.59634280  0.60621798     0.00500
Br574      Br  0.46268151  0.54134428  0.71820520    -0.03300
Br575      Br  0.45798087  0.63684000  0.67974084    -0.04200
Br576      Br  0.56390705  0.62313776  0.78538530    -0.00200
C577        C  0.99762684  0.28590999  0.86295901     0.01200
C578        C  0.98114416  0.25842493  0.85217588     0.04000
C579        C  0.98610694  0.22936610  0.86670323    -0.12000
C580        C  0.00252093  0.22764956  0.89497332     0.23300
C581        C  0.01711914  0.25394780  0.90673452    -0.12600
C582        C  0.02008049  0.28007292  0.88783820     0.04700
C583        C  0.00582110  0.19810725  0.91207725     0.27100
C584        C  0.98095649  0.18750615  0.93075306    -0.13300
C585        C  0.98426766  0.15987466  0.94749566     0.05200
C586        C  0.01205660  0.14235083  0.94517612    -0.09300
C587        C  0.03799750  0.15437163  0.92897260     0.06100
C588        C  0.03479248  0.18206518  0.91197211    -0.13600
Br589      Br  0.03618809  0.25307508  0.94777548    -0.05700
Br590      Br  0.94871892  0.25830002  0.82040224    -0.00100
Br591      Br  0.95141323  0.14694558  0.97515904     0.00400
Br592      Br  0.06983065  0.19776957  0.88819586    -0.04000
Br593      Br  0.06210675  0.29722357  0.89203681     0.00500
Br594      Br  0.96976501  0.19158899  0.84868934    -0.03300
Br595      Br  0.94239154  0.21081396  0.93351166    -0.04200
Br596      Br  0.07782172  0.13334818  0.93091276    -0.00200
C597        C  0.99779040  0.73244242  0.85119779     0.01200
C598        C  0.99294888  0.76089556  0.83401220     0.04000
C599        C  0.00180391  0.79001104  0.84635088    -0.12000
C600        C  0.01371144  0.79249679  0.87654667     0.23300
C601        C  0.01727628  0.76580798  0.89457302    -0.12600
C602        C  0.00726517  0.73673999  0.88320402     0.04700
C603        C  0.01375756  0.82334380  0.89190658     0.27100
C604        C  0.03899811  0.84433726  0.88870538    -0.13300
C605        C  0.03687124  0.87461510  0.90090227     0.05200
C606        C  0.00994379  0.88362246  0.91813628    -0.09300
C607        C  0.98481830  0.86154168  0.92173171     0.06100
C608        C  0.98659998  0.83226272  0.90789717    -0.13600
Br609      Br  0.03544660  0.76991679  0.93576882    -0.05700
Br610      Br  0.96600537  0.76454766  0.79830505    -0.00100
Br611      Br  0.07020570  0.90368468  0.89135969     0.00400
Br612      Br  0.95084613  0.80415411  0.90982140    -0.04000
Br613      Br  0.00271649  0.70560105  0.91466130     0.00500
Br614      Br  0.99557796  0.82799214  0.82283524    -0.03300
Br615      Br  0.07609615  0.83149081  0.86667644    -0.04200
Br616      Br  0.94722977  0.86880005  0.94617072    -0.00200
C617        C  0.02024062  0.34208658  0.85891039     0.01200
C618        C  0.01821602  0.35264554  0.89093661     0.04000
C619        C  0.03964800  0.37422640  0.90323442    -0.12000
C620        C  0.06583345  0.38330789  0.88623247     0.23300
C621        C  0.06903813  0.37428148  0.85533774    -0.12600
C622        C  0.04588025  0.35543809  0.84084502     0.04700
C623        C  0.09024997  0.40251645  0.90139409     0.27100
C624        C  0.08960228  0.43493848  0.89800587    -0.13300
C625        C  0.11301325  0.45306477  0.91233174     0.05200
C626        C  0.13552795  0.43879131  0.93176665    -0.09300
C627        C  0.13438759  0.40681070  0.93730524     0.06100
C628        C  0.11277046  0.38850275  0.92105797    -0.13600
Br629      Br  0.10560129  0.38949620  0.83290423    -0.05700
Br630      Br  0.98971307  0.33591423  0.92187478    -0.00100
Br631      Br  0.11467777  0.49709852  0.90473104     0.00400
Br632      Br  0.11422017  0.34442615  0.92658664    -0.04000
Br633      Br  0.05089421  0.35389337  0.79610511     0.00500
Br634      Br  0.03407329  0.39141501  0.94447461    -0.03300
Br635      Br  0.05591001  0.45436776  0.87492472    -0.04200
Br636      Br  0.16031154  0.38853907  0.96949216    -0.00200
C637        C  0.13395227  0.43076015  0.06755351     0.01200
C638        C  0.10516388  0.44289122  0.07887541     0.04000
C639        C  0.08241558  0.42322374  0.09291205    -0.12000
C640        C  0.08837365  0.39141075  0.09685251     0.23300
C641        C  0.11705299  0.37924587  0.08610894    -0.12600
C642        C  0.13937568  0.39847468  0.07117830     0.04700
C643        C  0.06487031  0.37042316  0.11245817     0.27100
C644        C  0.06664638  0.36474726  0.14459986    -0.13300
C645        C  0.04660152  0.34230652  0.15893420     0.05200
C646        C  0.02200855  0.32693542  0.14106707    -0.09300
C647        C  0.02907328  0.32652583  0.10880121     0.06100
C648        C  0.04555267  0.35103918  0.09455835    -0.13600
Br649      Br  0.12583216  0.33576936  0.09220660    -0.05700
Br650      Br  0.09719937  0.48666984  0.07744062    -0.00100
Br651      Br  0.06205839  0.32844159  0.19910900     0.00400
Br652      Br  0.04543130  0.35466782  0.04988074    -0.04000
Br653      Br  0.17668026  0.37926194  0.05468399     0.00500
Br654      Br  0.04283652  0.43962185  0.10708728    -0.03300
Br655      Br  0.09839539  0.38683011  0.16837127    -0.04200
Br656      Br  0.03681105  0.28754083  0.08892623    -0.00200
C657        C  0.02665287  0.68663507  0.14365192     0.01200
C658        C  0.04639384  0.69516694  0.11764382     0.04000
C659        C  0.06740196  0.67363657  0.10500286    -0.12000
C660        C  0.07472055  0.64657968  0.12127658     0.23300
C661        C  0.06313183  0.64250047  0.15142019    -0.12600
C662        C  0.04060174  0.66327709  0.16345939     0.04700
C663        C  0.09668666  0.62389342  0.10738237     0.27100
C664        C  0.08597643  0.60423407  0.08363001    -0.13300
C665        C  0.10712219  0.58445052  0.06836330     0.05200
C666        C  0.13971344  0.58390199  0.07719099    -0.09300
C667        C  0.14946296  0.60222688  0.10309560     0.06100
C668        C  0.12843219  0.62312661  0.11680266    -0.13600
Br669      Br  0.07701638  0.60702434  0.17546921    -0.05700
Br670      Br  0.05455428  0.73721787  0.10335677    -0.00100
Br671      Br  0.08951563  0.55901391  0.03551284     0.00400
Br672      Br  0.14352850  0.65229220  0.14752977    -0.04000
Br673      Br  0.03188455  0.65809049  0.20752048     0.00500
Br674      Br  0.08736719  0.68164176  0.06538635    -0.03300
Br675      Br  0.04205637  0.60587560  0.07108679    -0.04200
Br676      Br  0.19063973  0.59826367  0.12253692    -0.00200
C677        C  0.14451644  0.59309041  0.92941420     0.01200
C678        C  0.14711626  0.59436739  0.89668727     0.04000
C679        C  0.12867280  0.61493755  0.87908313    -0.12000
C680        C  0.10629684  0.63341293  0.89382240     0.23300
C681        C  0.10374391  0.63260886  0.92651746    -0.12600
C682        C  0.12368784  0.61339420  0.94430826     0.04700
C683        C  0.08171690  0.64915556  0.87500544     0.27100
C684        C  0.08465724  0.67999857  0.86541342    -0.13300
C685        C  0.05864061  0.69559945  0.85158677     0.05200
C686        C  0.02762067  0.68101833  0.84999514    -0.09300
C687        C  0.02616623  0.65068084  0.86468065     0.06100
C688        C  0.05342803  0.63363055  0.87037231    -0.13600
Br689      Br  0.07191137  0.65682796  0.94682147    -0.05700
Br690      Br  0.17473235  0.56698655  0.87524261    -0.00100
Br691      Br  0.06814084  0.73722961  0.83690968     0.00400
Br692      Br  0.05111563  0.58929804  0.87787102    -0.04000
Br693      Br  0.12427829  0.61689484  0.98882454     0.00500
Br694      Br  0.13267192  0.61685646  0.83448247    -0.03300
Br695      Br  0.12527138  0.69992481  0.87051499    -0.04200
Br696      Br  0.99384012  0.63539504  0.89249826    -0.00200
C697        C  0.34691407  0.44095578  0.92304988     0.01200
C698        C  0.34197496  0.40980608  0.91428673     0.04000
C699        C  0.36267071  0.39514957  0.89381159    -0.12000
C700        C  0.39048823  0.41019757  0.88434504     0.23300
C701        C  0.39682036  0.44054751  0.89439685    -0.12600
C702        C  0.37486130  0.45617038  0.91313992     0.04700
C703        C  0.41208383  0.39422515  0.86266576     0.27100
C704        C  0.43062808  0.36960525  0.87327262    -0.13300
C705        C  0.44506263  0.35005495  0.85178087     0.05200
C706        C  0.45150892  0.36076028  0.82125383    -0.09300
C707        C  0.42758948  0.38203609  0.80952484     0.06100
C708        C  0.40885504  0.39896888  0.83059513    -0.13600
Br709      Br  0.43529802  0.46078984  0.88153995    -0.05700
Br710      Br  0.30890412  0.38554836  0.93261654    -0.00100
Br711      Br  0.43594004  0.30671835  0.85888075     0.00400
Br712      Br  0.37719983  0.42798548  0.81601966    -0.04000
Br713      Br  0.38305543  0.49872005  0.92363798     0.00500
Br714      Br  0.35219127  0.35468868  0.87759041    -0.03300
Br715      Br  0.43287802  0.35982784  0.91693573    -0.04200
Br716      Br  0.41312403  0.38578672  0.76662283    -0.00200
C717        C  0.34809971  0.58632486  0.93030884     0.01200
C718        C  0.33885798  0.60780010  0.90658657     0.04000
C719        C  0.36131664  0.61998407  0.88590944    -0.12000
C720        C  0.39341489  0.61328033  0.88990967     0.23300
C721        C  0.40331890  0.59558941  0.91563394    -0.12600
C722        C  0.38097341  0.58286360  0.93629067     0.04700
C723        C  0.41673830  0.62626334  0.86759562     0.27100
C724        C  0.42049877  0.61260792  0.83861378    -0.13300
C725        C  0.43953584  0.62672221  0.81554801     0.05200
C726        C  0.46107688  0.65189831  0.82342862    -0.09300
C727        C  0.45637463  0.66492514  0.85418918     0.06100
C728        C  0.43322714  0.65329191  0.87463987    -0.13600
Br729      Br  0.44781978  0.58854843  0.92212715    -0.05700
Br730      Br  0.29674200  0.62481983  0.90350464    -0.00100
Br731      Br  0.43456011  0.60674319  0.77586855     0.00400
Br732      Br  0.42313963  0.67439998  0.91300006    -0.04000
Br733      Br  0.39665604  0.56433863  0.97430871     0.00500
Br734      Br  0.34828879  0.64617377  0.85160622    -0.03300
Br735      Br  0.40046172  0.57257885  0.83200804    -0.04200
Br736      Br  0.47862432  0.70063307  0.87005453    -0.00200
C737        C  0.35034436  0.57612623  0.07903253     0.01200
C738        C  0.35513940  0.60821334  0.07557427     0.04000
C739        C  0.37558164  0.62429380  0.09588229    -0.12000
C740        C  0.39424927  0.60793735  0.11771139     0.23300
C741        C  0.39113599  0.57532424  0.11956088    -0.12600
C742        C  0.36897431  0.55958593  0.10060146     0.04700
C743        C  0.41855146  0.62472074  0.13701942     0.27100
C744        C  0.44484936  0.63823219  0.12300211    -0.13300
C745        C  0.46585571  0.65675193  0.14047333     0.05200
C746        C  0.46743867  0.65501509  0.17422005    -0.09300
C747        C  0.44150800  0.63727622  0.18788418     0.06100
C748        C  0.41566671  0.62706539  0.16928284    -0.13600
Br749      Br  0.41751542  0.55197833  0.14772605    -0.05700
Br750      Br  0.33701674  0.62927246  0.04027216    -0.00100
Br751      Br  0.48853547  0.68662014  0.11553739     0.00400
Br752      Br  0.37592863  0.61500013  0.18783373    -0.04000
Br753      Br  0.36469739  0.51519135  0.10348298     0.00500
Br754      Br  0.37733203  0.66890184  0.09413900    -0.03300
Br755      Br  0.45217754  0.63129193  0.07922626    -0.04200
Br756      Br  0.43986433  0.61818486  0.22864668    -0.00200
C757        C  0.46246292  0.36393733  0.16111615     0.01200
C758        C  0.46044668  0.39436784  0.14680511     0.04000
C759        C  0.43679333  0.40149494  0.12493955    -0.12000
C760        C  0.41443264  0.37923778  0.11641847     0.23300
C761        C  0.41695028  0.34891245  0.12722590    -0.12600
C762        C  0.44081819  0.34064436  0.14876748     0.04700
C763        C  0.38684084  0.38903546  0.09781342     0.27100
C764        C  0.35862170  0.39624552  0.11306798    -0.13300
C765        C  0.33619378  0.41490272  0.09829928     0.05200
C766        C  0.34122050  0.42499610  0.06738885    -0.09300
C767        C  0.36717924  0.41341628  0.05064232     0.06100
C768        C  0.39029479  0.39591320  0.06609361    -0.13600
Br769      Br  0.38694960  0.31873187  0.11107849    -0.05700
Br770      Br  0.48465254  0.42999174  0.16051719    -0.00100
Br771      Br  0.29985852  0.42753990  0.12199757     0.00400
Br772      Br  0.42750305  0.38242768  0.04454370    -0.04000
Br773      Br  0.44304615  0.29623138  0.15497662     0.00500
Br774      Br  0.43230093  0.44347163  0.10898733    -0.03300
Br775      Br  0.35059740  0.38107461  0.15447094    -0.04200
Br776      Br  0.37074126  0.42002049  0.00645106    -0.00200
C777        C  0.63679433  0.43984237  0.06808680     0.01200
C778        C  0.61695691  0.45706865  0.08759352     0.04000
C779        C  0.59438422  0.44194208  0.10618633    -0.12000
C780        C  0.59399249  0.40929460  0.10834914     0.23300
C781        C  0.61441339  0.39211499  0.08927140    -0.12600
C782        C  0.63341685  0.40744543  0.06728048     0.04700
C783        C  0.57068427  0.39340627  0.12905502     0.27100
C784        C  0.57182580  0.39752757  0.16124642    -0.13300
C785        C  0.54504287  0.39072206  0.17960869     0.05200
C786        C  0.52079280  0.36933130  0.16843612    -0.09300
C787        C  0.52461745  0.36051867  0.13609719     0.06100
C788        C  0.54589585  0.37609809  0.11645011    -0.13600
Br789      Br  0.61706944  0.34774599  0.09351764    -0.05700
Br790      Br  0.62059395  0.50141919  0.08916898    -0.00100
Br791      Br  0.54232197  0.41975640  0.21362789     0.00400
Br792      Br  0.54030681  0.37447577  0.07178383    -0.04000
Br793      Br  0.64963948  0.38488902  0.03254908     0.00500
Br794      Br  0.56316533  0.46611835  0.12756522    -0.03300
Br795      Br  0.60973701  0.41506033  0.17956771    -0.04200
Br796      Br  0.50443671  0.32539416  0.11661770    -0.00200
C797        C  0.63738347  0.57942180  0.07074007     0.01200
C798        C  0.64678980  0.59183742  0.10004912     0.04000
C799        C  0.62453881  0.60597278  0.11937779    -0.12000
C800        C  0.59326547  0.60973597  0.10923551     0.23300
C801        C  0.58352462  0.59742508  0.08058638    -0.12600
C802        C  0.60481285  0.58070937  0.06225450     0.04700
C803        C  0.57009475  0.62520323  0.12962282     0.27100
C804        C  0.54831468  0.60732929  0.14592290    -0.13300
C805        C  0.52619599  0.62144064  0.16543955     0.05200
C806        C  0.52595251  0.65472821  0.17045210    -0.09300
C807        C  0.54909577  0.67248694  0.15288651     0.06100
C808        C  0.57043503  0.65739639  0.13283640    -0.13600
Br809      Br  0.54052134  0.60354996  0.06668384    -0.05700
Br810      Br  0.68938885  0.58818642  0.11620828    -0.00100
Br811      Br  0.50063386  0.59226152  0.18857911     0.00400
Br812      Br  0.60036411  0.68063823  0.10781243    -0.04000
Br813      Br  0.58719515  0.55827767  0.02730294     0.00500
Br814      Br  0.63655902  0.61968029  0.16050372    -0.03300
Br815      Br  0.55072868  0.56250009  0.14277263    -0.04200
Br816      Br  0.55212351  0.71736302  0.15007762    -0.00200
C817        C  0.63818870  0.58878469  0.92301866     0.01200
C818        C  0.61723397  0.60845807  0.93872039     0.04000
C819        C  0.59484006  0.62553290  0.92172954    -0.12000
C820        C  0.59570031  0.62538616  0.88908465     0.23300
C821        C  0.61987355  0.60946380  0.87375079    -0.12600
C822        C  0.63971069  0.58967184  0.89038803     0.04700
C823        C  0.56850223  0.63686689  0.87077607     0.27100
C824        C  0.54468253  0.61602238  0.86302104    -0.13300
C825        C  0.52121293  0.62413060  0.84130702     0.05200
C826        C  0.51929052  0.65522436  0.82802228    -0.09300
C827        C  0.54260641  0.67718910  0.84004023     0.06100
C828        C  0.56712023  0.66736809  0.86035178    -0.13600
Br829      Br  0.62702525  0.61534165  0.83022152    -0.05700
Br830      Br  0.62156100  0.61494708  0.98266906    -0.00100
Br831      Br  0.49698284  0.58844670  0.82752862     0.00400
Br832      Br  0.59926887  0.69565792  0.87589208    -0.04000
Br833      Br  0.66808748  0.56294560  0.86792261     0.00500
Br834      Br  0.56281268  0.64876547  0.94283642    -0.03300
Br835      Br  0.54575251  0.57497377  0.88187175    -0.04200
Br836      Br  0.54342462  0.72151673  0.83381926    -0.00200
C837        C  0.63172646  0.44374695  0.91570735     0.01200
C838        C  0.60851564  0.46222489  0.90090106     0.04000
C839        C  0.58401151  0.44837173  0.88337406    -0.12000
C840        C  0.58283189  0.41600378  0.87980245     0.23300
C841        C  0.60615012  0.39755305  0.89428155    -0.12600
C842        C  0.62995281  0.41126704  0.91275317     0.04700
C843        C  0.55766290  0.40108484  0.86034809     0.27100
C844        C  0.53334039  0.38441647  0.87457532    -0.13300
C845        C  0.51465845  0.36363422  0.85725228     0.05200
C846        C  0.51316262  0.36533900  0.82392811    -0.09300
C847        C  0.53982713  0.38129767  0.80988698     0.06100
C848        C  0.56122132  0.39901010  0.82810575    -0.13600
Br849      Br  0.60594955  0.35331809  0.88817644    -0.05700
Br850      Br  0.61070595  0.50671198  0.90337315    -0.00100
Br851      Br  0.50681599  0.32571664  0.87977425     0.00400
Br852      Br  0.59679449  0.42002670  0.80924522    -0.04000
Br853      Br  0.65880755  0.38524477  0.93567850     0.00500
Br854      Br  0.55210943  0.47365776  0.86381022    -0.03300
Br855      Br  0.52766881  0.38768710  0.91893406    -0.04200
Br856      Br  0.55393464  0.37428921  0.76773272    -0.00200
C857        C  0.84914134  0.43982340  0.06475893     0.01200
C858        C  0.87725491  0.45442662  0.07564371     0.04000
C859        C  0.90014103  0.43735009  0.09255714    -0.12000
C860        C  0.89590242  0.40543106  0.09802551     0.23300
C861        C  0.86868422  0.39065251  0.08607449    -0.12600
C862        C  0.84561302  0.40754506  0.06954820     0.04700
C863        C  0.92099345  0.38631919  0.11371212     0.27100
C864        C  0.94413174  0.37256599  0.09557283    -0.13300
C865        C  0.96076388  0.34650521  0.10658095     0.05200
C866        C  0.96159438  0.33823856  0.13920188    -0.09300
C867        C  0.93671665  0.35251388  0.15727370     0.06100
C868        C  0.91748114  0.37642088  0.14454297    -0.13600
Br869      Br  0.86354474  0.34655580  0.09118725    -0.05700
Br870      Br  0.88564504  0.49760094  0.06708833    -0.00100
Br871      Br  0.96776992  0.31737720  0.07337507     0.00400
Br872      Br  0.88454513  0.39548270  0.16873824    -0.04000
Br873      Br  0.81095707  0.38517968  0.05058258     0.00500
Br874      Br  0.93793609  0.45734546  0.10776190    -0.03300
Br875      Br  0.95014268  0.38738631  0.05346942    -0.04200
Br876      Br  0.92050636  0.33567353  0.19588938    -0.00200
C877        C  0.96212983  0.33734877  0.85543503     0.01200
C878        C  0.96010729  0.37001416  0.84742840     0.04000
C879        C  0.93742222  0.38940344  0.86074646    -0.12000
C880        C  0.91222842  0.37670893  0.87701217     0.23300
C881        C  0.91015802  0.34469478  0.88105371    -0.12600
C882        C  0.93585550  0.32540266  0.87350890     0.04700
C883        C  0.88866212  0.39721326  0.89163066     0.27100
C884        C  0.89220557  0.40518980  0.92309363    -0.13300
C885        C  0.86958575  0.42369495  0.93764649     0.05200
C886        C  0.84325892  0.43474672  0.92063763    -0.09300
C887        C  0.83995376  0.42687023  0.88886947     0.06100
C888        C  0.86267701  0.40822222  0.87446229    -0.13600
Br889      Br  0.87153958  0.32794333  0.89839540    -0.05700
Br890      Br  0.98522168  0.39005439  0.81589747    -0.00100
Br891      Br  0.87411450  0.43167020  0.98154685     0.00400
Br892      Br  0.85835712  0.39749234  0.83117211    -0.04000
Br893      Br  0.93318360  0.28577665  0.89420425     0.00500
Br894      Br  0.94045567  0.43402961  0.85677444    -0.03300
Br895      Br  0.92814366  0.39035562  0.94641004    -0.04200
Br896      Br  0.80496275  0.44201421  0.86439189    -0.00200
C897        C  0.84584641  0.58290664  0.91341148     0.01200
C898        C  0.87663904  0.57066584  0.90957852     0.04000
C899        C  0.90034670  0.58833166  0.89467744    -0.12000
C900        C  0.89279923  0.61654133  0.87960491     0.23300
C901        C  0.86115859  0.62634574  0.87956507    -0.12600
C902        C  0.83880509  0.61166182  0.89879438     0.04700
C903        C  0.91784067  0.63766962  0.86651289     0.27100
C904        C  0.92223707  0.66738679  0.87922597    -0.13300
C905        C  0.94279357  0.68895912  0.86522305     0.05200
C906        C  0.96670721  0.67880779  0.84423467    -0.09300
C907        C  0.96190582  0.64817947  0.83126535     0.06100
C908        C  0.93605620  0.62937229  0.84065451    -0.13600
Br909      Br  0.84844652  0.66030158  0.85299542    -0.05700
Br910      Br  0.88708554  0.52922929  0.92340371    -0.00100
Br911      Br  0.93064375  0.73157248  0.87066149     0.00400
Br912      Br  0.92549261  0.59215744  0.81806774    -0.04000
Br913      Br  0.80063691  0.63417570  0.90771156     0.00500
Br914      Br  0.94317020  0.57362312  0.89607832    -0.03300
Br915      Br  0.90079087  0.67877109  0.91700255    -0.04200
Br916      Br  0.99071794  0.62977181  0.80182866    -0.00200
C917        C  0.84449287  0.59337976  0.05860423     0.01200
C918        C  0.84223915  0.60106177  0.09051170     0.04000
C919        C  0.86662426  0.61781066  0.10516604    -0.12000
C920        C  0.89183484  0.62986483  0.08768190     0.23300
C921        C  0.89247106  0.62509907  0.05537472    -0.12600
C922        C  0.86907575  0.60673458  0.04089484     0.04700
C923        C  0.91740014  0.64755930  0.10373898     0.27100
C924        C  0.91210290  0.67793543  0.11334940    -0.13300
C925        C  0.93378379  0.69310848  0.13315647     0.05200
C926        C  0.96406999  0.67979827  0.14075222    -0.09300
C927        C  0.96654345  0.64711671  0.13377864     0.06100
C928        C  0.94445126  0.63218472  0.11402749    -0.13600
Br929      Br  0.92514235  0.64428294  0.03097676    -0.05700
Br930      Br  0.80523351  0.59104485  0.11452966    -0.00100
Br931      Br  0.91874143  0.73067723  0.15181783     0.00400
Br932      Br  0.94996676  0.58931907  0.10186948    -0.04000
Br933      Br  0.86878569  0.60318764  0.99625157     0.00500
Br934      Br  0.86582423  0.62391096  0.14960801    -0.03300
Br935      Br  0.87490319  0.69903613  0.09819713    -0.04200
Br936      Br  0.98862870  0.61765907  0.15921301    -0.00200
C937        C  0.04489963  0.02128316  0.85807766     0.01200
C938        C  0.07254087  0.03883800  0.85354837     0.04000
C939        C  0.08959072  0.03607196  0.82586203    -0.12000
C940        C  0.07914613  0.01543159  0.80269002     0.23300
C941        C  0.05134774  0.99802799  0.80710274    -0.12600
C942        C  0.03432061  0.00090322  0.83481752     0.04700
C943        C  0.09639035  0.01356541  0.77291930     0.27100
C944        C  0.08872294  0.03408288  0.74911084    -0.13300
C945        C  0.10686129  0.03534424  0.72187204     0.05200
C946        C  0.12952162  0.01115174  0.71475312    -0.09300
C947        C  0.13747489  0.99104623  0.74071277     0.06100
C948        C  0.12128777  0.99288650  0.76928095    -0.13600
Br949      Br  0.03707919  0.96975899  0.77547045    -0.05700
Br950      Br  0.08771434  0.06558892  0.88603211    -0.00100
Br951      Br  0.10320302  0.07564117  0.70210656     0.00400
Br952      Br  0.13136806  0.96547193  0.80360024    -0.04000
Br953      Br  0.99758069  0.97558458  0.84183954     0.00500
Br954      Br  0.12764739  0.05998029  0.81988377    -0.03300
Br955      Br  0.05343717  0.06194638  0.75529452    -0.04200
Br956      Br  0.16748245  0.95746522  0.73845426    -0.00200
C957        C  0.08063604  0.02839018  0.10944874     0.01200
C958        C  0.07789794  0.05503402  0.12819153     0.04000
C959        C  0.08950149  0.05449947  0.15892768    -0.12000
C960        C  0.10556176  0.02830239  0.17028624     0.23300
C961        C  0.11103585  0.00304439  0.15078041    -0.12600
C962        C  0.09823815  0.00278892  0.12074284     0.04700
C963        C  0.11510828  0.02614967  0.20330266     0.27100
C964        C  0.14307395  0.03978125  0.21346336    -0.13300
C965        C  0.15038274  0.04020179  0.24533974     0.05200
C966        C  0.13397722  0.02020826  0.26733192    -0.09300
C967        C  0.10904356  0.00130467  0.25365588     0.06100
C968        C  0.09713838  0.00848405  0.22389777    -0.13600
Br969      Br  0.13439853  0.96773355  0.16621835    -0.05700
Br970      Br  0.05598744  0.09134800  0.11338046    -0.00100
Br971      Br  0.17894429  0.07337279  0.25645777     0.00400
Br972      Br  0.05664723  0.99250366  0.21004902    -0.04000
Br973      Br  0.10420045  0.96612079  0.09626454     0.00500
Br974      Br  0.08084890  0.08833632  0.18654690    -0.03300
Br975      Br  0.17084232  0.05877214  0.18325188    -0.04200
Br976      Br  0.09418118  0.96088250  0.26748540    -0.00200
C977        C  0.23042073  0.50549835  0.14673619     0.01200
C978        C  0.25460877  0.50322249  0.16916809     0.04000
C979        C  0.24722866  0.50360683  0.20104084    -0.12000
C980        C  0.21587844  0.50856798  0.21057148     0.23300
C981        C  0.19192079  0.51222765  0.18802594    -0.12600
C982        C  0.19903778  0.50978485  0.15632253     0.04700
C983        C  0.20767107  0.51035296  0.24409788     0.27100
C984        C  0.19096497  0.48607085  0.25795445    -0.13300
C985        C  0.17706601  0.48997658  0.28723423     0.05200
C986        C  0.18746929  0.51462447  0.30759797    -0.09300
C987        C  0.20471560  0.53941776  0.29258865     0.06100
C988        C  0.21296592  0.53764150  0.26084131    -0.13600
Br989      Br  0.14941423  0.52172239  0.20057869    -0.05700
Br990      Br  0.29790084  0.50175142  0.15632608    -0.00100
Br991      Br  0.13891810  0.46542435  0.29192126     0.00400
Br992      Br  0.23223863  0.57249977  0.23982727    -0.04000
Br993      Br  0.16564218  0.51281837  0.12592264     0.00500
Br994      Br  0.28005342  0.49746177  0.23153110    -0.03300
Br995      Br  0.18591406  0.44748634  0.23569114    -0.04200
Br996      Br  0.21931864  0.57598465  0.31393102    -0.00200
C997        C  0.35176748  0.49275519  0.45423705     0.01200
C998        C  0.33323092  0.51908801  0.46027966     0.04000
C999        C  0.30391846  0.52278278  0.44547219    -0.12000
C1000       C  0.29235045  0.49943424  0.42577259     0.23300
C1001       C  0.30960185  0.47195069  0.42179285    -0.12600
C1002       C  0.33996814  0.46928069  0.43474128     0.04700
C1003       C  0.26423016  0.50512483  0.40609004     0.27100
C1004       C  0.23397761  0.50116526  0.41784546    -0.13300
C1005       C  0.20742334  0.50618075  0.39858110     0.05200
C1006       C  0.21067728  0.51124696  0.36518215    -0.09300
C1007       C  0.24285307  0.51087811  0.35396311     0.06100
C1008       C  0.26835145  0.51259577  0.37486721    -0.13600
Br1009     Br  0.29219301  0.43882657  0.39698875    -0.05700
Br1010     Br  0.34911001  0.55141060  0.48699472    -0.00100
Br1011     Br  0.16811057  0.50792457  0.42132639     0.00400
Br1012     Br  0.31006896  0.52436557  0.36067348    -0.04000
Br1013     Br  0.36689561  0.43612866  0.42165536     0.00500
Br1014     Br  0.28083243  0.56083154  0.45013597    -0.03300
Br1015     Br  0.22959961  0.49040944  0.46139186    -0.04200
Br1016     Br  0.25722176  0.49897306  0.31312098    -0.00200
C1017       C  0.79957327  0.50787683  0.29718731     0.01200
C1018       C  0.81240654  0.48609632  0.27513609     0.04000
C1019       C  0.80189377  0.48631235  0.24375961    -0.12000
C1020       C  0.78483882  0.51151869  0.23173316     0.23300
C1021       C  0.77813507  0.53628561  0.25109867    -0.12600
C1022       C  0.78198880  0.53323725  0.28344626     0.04700
C1023       C  0.77482171  0.51265379  0.19847666     0.27100
C1024       C  0.79775677  0.51628751  0.17524832    -0.13300
C1025       C  0.78891964  0.51476111  0.14388255     0.05200
C1026       C  0.75693438  0.51296163  0.13532366    -0.09300
C1027       C  0.73366094  0.51090706  0.15824533     0.06100
C1028       C  0.74251483  0.51054901  0.18982785    -0.13600
Br1029     Br  0.76343532  0.57467836  0.23263390    -0.05700
Br1030     Br  0.84668395  0.45773002  0.28306794    -0.00100
Br1031     Br  0.82081272  0.51283150  0.11250968     0.00400
Br1032     Br  0.70994417  0.50800943  0.22065644    -0.04000
Br1033     Br  0.75891921  0.56335737  0.30636118     0.00500
Br1034     Br  0.81013472  0.45148341  0.21687202    -0.03300
Br1035     Br  0.84109592  0.52498268  0.18627809    -0.04200
Br1036     Br  0.68988269  0.50757385  0.14616328    -0.00200
C1037       C  0.76990446  0.49731498  0.34918740     0.01200
C1038       C  0.76687687  0.49500417  0.38251552     0.04000
C1039       C  0.73675233  0.49416733  0.39662915    -0.12000
C1040       C  0.70940022  0.48919230  0.37885257     0.23300
C1041       C  0.71236293  0.48340131  0.34721192    -0.12600
C1042       C  0.74140008  0.48842258  0.33191532     0.04700
C1043       C  0.67705884  0.49069415  0.39258926     0.27100
C1044       C  0.66646896  0.46817285  0.41397835    -0.13300
C1045       C  0.63595678  0.47015233  0.42656371     0.05200
C1046       C  0.61390046  0.49143778  0.41441562    -0.09300
C1047       C  0.62440484  0.51374612  0.39257049     0.06100
C1048       C  0.65602277  0.51405960  0.38266115    -0.13600
Br1049     Br  0.67524055  0.46745956  0.32538891    -0.05700
Br1050     Br  0.80235729  0.49682989  0.41108702    -0.00100
Br1051     Br  0.62711438  0.44839641  0.46463129     0.00400
Br1052     Br  0.67068763  0.54691785  0.35560874    -0.04000
Br1053     Br  0.73825282  0.47666451  0.28853190     0.00500
Br1054     Br  0.73251960  0.50416314  0.44006208    -0.03300
Br1055     Br  0.69331017  0.43415140  0.42584465    -0.04200
Br1056     Br  0.59614636  0.54513639  0.37706502    -0.00200
C1057       C  0.85268641  0.00672385  0.72593193     0.01200
C1058       C  0.87514735  0.02543236  0.74328961     0.04000
C1059       C  0.87780756  0.02262252  0.77597053    -0.12000
C1060       C  0.86025463  0.00037921  0.79220040     0.23300
C1061       C  0.83863347  0.98199333  0.77630922    -0.12600
C1062       C  0.83815063  0.98203427  0.74374152     0.04700
C1063       C  0.86936081  0.99219919  0.82457765     0.27100
C1064       C  0.89006985  0.96716358  0.83026879    -0.13300
C1065       C  0.90428240  0.96361291  0.85965594     0.05200
C1066       C  0.89855592  0.98565381  0.88281529    -0.09300
C1067       C  0.87395115  0.00709813  0.87870265     0.06100
C1068       C  0.85954762  0.01065859  0.84945598    -0.13600
Br1069     Br  0.81199066  0.95390527  0.79968412    -0.05700
Br1070     Br  0.91001881  0.04822544  0.72496656    -0.00100
Br1071     Br  0.93199686  0.92918263  0.86789370     0.00400
Br1072     Br  0.82766569  0.04165513  0.84284585    -0.04000
Br1073     Br  0.83107943  0.94055696  0.72837458     0.00500
Br1074     Br  0.90669123  0.04873744  0.79933378    -0.03300
Br1075     Br  0.90063240  0.93876517  0.79758553    -0.04200
Br1076     Br  0.85903543  0.03006331  0.91377779    -0.00200
C1077       C  0.86378420  0.00932440  0.27185809     0.01200
C1078       C  0.85723818  0.02507982  0.24255234     0.04000
C1079       C  0.87678869  0.02091525  0.21645183    -0.12000
C1080       C  0.90274702  0.00128421  0.21808423     0.23300
C1081       C  0.90796285  0.98349365  0.24454319    -0.12600
C1082       C  0.88635368  0.98423768  0.26913832     0.04700
C1083       C  0.92108679  0.99551262  0.18969303     0.27100
C1084       C  0.90955764  0.97380618  0.16805280    -0.13300
C1085       C  0.92334639  0.97184477  0.13865490     0.05200
C1086       C  0.94851073  0.99156547  0.13085859    -0.09300
C1087       C  0.96145878  0.01169640  0.15321365     0.06100
C1088       C  0.94771017  0.01375307  0.18270402    -0.13600
Br1089     Br  0.94374749  0.95572857  0.24543300    -0.05700
Br1090     Br  0.82382225  0.05433449  0.23473740    -0.00100
Br1091     Br  0.90718310  0.94295213  0.10863346     0.00400
Br1092     Br  0.96407260  0.04263491  0.21283206    -0.04000
Br1093     Br  0.88388669  0.94416899  0.28958958     0.00500
Br1094     Br  0.86978061  0.04365286  0.17793761    -0.03300
Br1095     Br  0.87343824  0.94835006  0.17804219    -0.04200
Br1096     Br  0.99711929  0.03728033  0.14288895    -0.00200
C1097       C  0.18612005  0.52615044  0.69316325     0.01200
C1098       C  0.16146758  0.53377373  0.71511637     0.04000
C1099       C  0.16739611  0.53253375  0.74775560    -0.12000
C1100       C  0.19551574  0.51964199  0.75927353     0.23300
C1101       C  0.21853832  0.51084492  0.73822312    -0.12600
C1102       C  0.21639084  0.52117131  0.70760896     0.04700
C1103       C  0.20323793  0.51852264  0.79312721     0.27100
C1104       C  0.22444747  0.54037236  0.80577096    -0.13300
C1105       C  0.23654254  0.53657100  0.83612268     0.05200
C1106       C  0.22552985  0.51221674  0.85540594    -0.09300
C1107       C  0.20342327  0.49068786  0.84262814     0.06100
C1108       C  0.19274582  0.49376045  0.81163976    -0.13600
Br1109     Br  0.25614064  0.48977111  0.75205533    -0.05700
Br1110     Br  0.11930423  0.54603684  0.70401348    -0.00100
Br1111     Br  0.26976167  0.56391528  0.85004885     0.00400
Br1112     Br  0.16348600  0.46402849  0.79423149    -0.04000
Br1113     Br  0.25314555  0.54623664  0.69849874     0.00500
Br1114     Br  0.13700212  0.54757650  0.77726950    -0.03300
Br1115     Br  0.23647901  0.57605487  0.78136538    -0.04200
Br1116     Br  0.18641316  0.45688848  0.86674166    -0.00200
C1117       C  0.21624103  0.52535795  0.64086136     0.01200
C1118       C  0.23795287  0.49979969  0.64535610     0.04000
C1119       C  0.27021061  0.50254956  0.63771321    -0.12000
C1120       C  0.28231654  0.53007637  0.62533055     0.23300
C1121       C  0.26224347  0.55492062  0.61973768    -0.12600
C1122       C  0.22940483  0.55194758  0.62451042     0.04700
C1123       C  0.31355804  0.52960456  0.61002080     0.27100
C1124       C  0.34100558  0.54227254  0.62375097    -0.13300
C1125       C  0.37025754  0.54034979  0.60826391     0.05200
C1126       C  0.37234946  0.52413719  0.57987938    -0.09300
C1127       C  0.34464082  0.50991594  0.56754689     0.06100
C1128       C  0.31536043  0.51475123  0.58127228    -0.13600
Br1129     Br  0.28064362  0.59277063  0.60313706    -0.05700
Br1130     Br  0.22666180  0.46017426  0.66333169    -0.00100
Br1131     Br  0.40768948  0.55719055  0.62760961     0.00400
Br1132     Br  0.27707377  0.50066434  0.56061174    -0.04000
Br1133     Br  0.20649096  0.58148421  0.59949083     0.00500
Br1134     Br  0.29925212  0.46859716  0.64471811    -0.03300
Br1135     Br  0.33841249  0.56182135  0.66374229    -0.04200
Br1136     Br  0.34505727  0.48112134  0.53356716    -0.00200
C1137       C  0.74884409  0.51109355  0.84445718     0.01200
C1138       C  0.76338705  0.53707239  0.82969512     0.04000
C1139       C  0.76956421  0.53675093  0.79762737    -0.12000
C1140       C  0.76451360  0.50973820  0.78035988     0.23300
C1141       C  0.75012191  0.48390441  0.79450222    -0.12600
C1142       C  0.74065320  0.48518149  0.82582476     0.04700
C1143       C  0.77548986  0.50824078  0.74760347     0.27100
C1144       C  0.75416103  0.51165008  0.72313158    -0.13300
C1145       C  0.76383623  0.50658913  0.69239436     0.05200
C1146       C  0.79690434  0.50717498  0.68401981    -0.09300
C1147       C  0.81784982  0.50048828  0.71012360     0.06100
C1148       C  0.80681730  0.50088897  0.74116900    -0.13600
Br1149     Br  0.74422895  0.44639956  0.77092792    -0.05700
Br1150     Br  0.77768044  0.57297801  0.85232311    -0.00100
Br1151     Br  0.73070275  0.48706806  0.66822523     0.00400
Br1152     Br  0.83441490  0.49129211  0.77606520    -0.04000
Br1153     Br  0.71459803  0.45202404  0.84180418     0.00500
Br1154     Br  0.78524695  0.57343080  0.77694631    -0.03300
Br1155     Br  0.71051818  0.52061245  0.73226722    -0.04200
Br1156     Br  0.86147277  0.48872927  0.70732659    -0.00200
C1157       C  0.77812295  0.51301645  0.62563017     0.01200
C1158       C  0.76756383  0.49047482  0.60259843     0.04000
C1159       C  0.73988169  0.49567578  0.58444082    -0.12000
C1160       C  0.72432729  0.52414367  0.58508836     0.23300
C1161       C  0.73612386  0.54764816  0.60382508    -0.12600
C1162       C  0.75978320  0.54140593  0.62602464     0.04700
C1163       C  0.69269092  0.52788769  0.57008769     0.27100
C1164       C  0.68930714  0.53384096  0.53801314    -0.13300
C1165       C  0.65898022  0.53385225  0.52400362     0.05200
C1166       C  0.63186629  0.52895662  0.54249711    -0.09300
C1167       C  0.63553714  0.52665359  0.57512877     0.06100
C1168       C  0.66559418  0.52556998  0.58861274    -0.13600
Br1169     Br  0.71803217  0.58857601  0.59947122    -0.05700
Br1170     Br  0.78831462  0.45255466  0.59144523    -0.00100
Br1171     Br  0.65526213  0.53935945  0.47967801     0.00400
Br1172     Br  0.66909406  0.52116177  0.63300813    -0.04000
Br1173     Br  0.76245024  0.57231177  0.65827640     0.00500
Br1174     Br  0.72225204  0.46374143  0.55777157    -0.03300
Br1175     Br  0.72635268  0.54278604  0.51391324    -0.04200
Br1176     Br  0.59953032  0.52593154  0.60254536    -0.00200
C1177       C  0.99638292  0.28435649  0.35474448     0.01200
C1178       C  0.97165045  0.30217581  0.34123902     0.04000
C1179       C  0.97270849  0.31104940  0.30965041    -0.12000
C1180       C  0.99877296  0.30349096  0.29109809     0.23300
C1181       C  0.02375892  0.28645597  0.30439324    -0.12600
C1182       C  0.02207339  0.27587711  0.33548074     0.04700
C1183       C  0.99634086  0.30740366  0.25651801     0.27100
C1184       C  0.98595103  0.28210513  0.23906106    -0.13300
C1185       C  0.97782345  0.28569592  0.20757291     0.05200
C1186       C  0.98657799  0.31325337  0.19031324    -0.09300
C1187       C  0.99360913  0.33983364  0.20931127     0.06100
C1188       C  0.99913971  0.33650500  0.24184832    -0.13600
Br1189     Br  0.05948498  0.27594364  0.27898680    -0.05700
Br1190     Br  0.93538617  0.31477605  0.36487212    -0.00100
Br1191     Br  0.94546964  0.25641505  0.19485680     0.00400
Br1192     Br  0.01305938  0.37135354  0.26634824    -0.04000
Br1193     Br  0.05351743  0.24674300  0.34979071     0.00500
Br1194     Br  0.93716587  0.33207845  0.29091798    -0.03300
Br1195     Br  0.98029726  0.24220535  0.25939095    -0.04200
Br1196     Br  0.99581621  0.38146800  0.19229548    -0.00200
C1197       C  0.99424242  0.31216557  0.80979210     0.01200
C1198       C  0.96952010  0.32120922  0.78786797     0.04000
C1199       C  0.97332133  0.31682554  0.75568310    -0.12000
C1200       C  0.99688692  0.29752354  0.74454965     0.23300
C1201       C  0.01871798  0.28461713  0.76509251    -0.12600
C1202       C  0.01849534  0.29250685  0.79685917     0.04700
C1203       C  0.99789629  0.28962499  0.71105455     0.27100
C1204       C  0.97759918  0.26675863  0.69892097    -0.13300
C1205       C  0.97780793  0.26002085  0.66693708     0.05200
C1206       C  0.00009106  0.27457715  0.64714792    -0.09300
C1207       C  0.02037583  0.29752059  0.65978611     0.06100
C1208       C  0.01883048  0.30534632  0.69137504    -0.13600
Br1209     Br  0.04974924  0.25633336  0.74857904    -0.05700
Br1210     Br  0.92599280  0.33165752  0.79752503    -0.00100
Br1211     Br  0.94644978  0.23170345  0.65088470     0.00400
Br1212     Br  0.04450478  0.33863757  0.70775518    -0.04000
Br1213     Br  0.05424232  0.27685515  0.81982609     0.00500
Br1214     Br  0.94487344  0.33591273  0.72586981    -0.03300
Br1215     Br  0.94939487  0.24483159  0.72645554    -0.04200
Br1216     Br  0.04810485  0.32124123  0.63383113    -0.00200
C1217       C  0.91811366  0.36896713  0.43523773     0.01200
C1218       C  0.88662361  0.37404892  0.44443517     0.04000
C1219       C  0.86881962  0.39791042  0.43041525    -0.12000
C1220       C  0.88031748  0.41326961  0.40375993     0.23300
C1221       C  0.91102660  0.40636950  0.39323824    -0.12600
C1222       C  0.93057121  0.38626357  0.41040781     0.04700
C1223       C  0.86023089  0.43588526  0.38610266     0.27100
C1224       C  0.83450865  0.42573819  0.36809191    -0.13300
C1225       C  0.81716376  0.44695626  0.34940259     0.05200
C1226       C  0.82697839  0.47901131  0.34599545    -0.09300
C1227       C  0.85703345  0.48582384  0.36009893     0.06100
C1228       C  0.86960384  0.46686918  0.38367650    -0.13600
Br1229     Br  0.92587570  0.42263393  0.35416253    -0.05700
Br1230     Br  0.86764227  0.34841067  0.47606813    -0.00100
Br1231     Br  0.78303515  0.42855379  0.32631697     0.00400
Br1232     Br  0.90289879  0.48268568  0.41008593    -0.04000
Br1233     Br  0.97432704  0.38192774  0.39943906     0.00500
Br1234     Br  0.82915834  0.41010317  0.44817945    -0.03300
Br1235     Br  0.82337882  0.38213374  0.36910841    -0.04200
Br1236     Br  0.89128581  0.50256951  0.33633746    -0.00200
C1237       C  0.92806799  0.36800959  0.57410175     0.01200
C1238       C  0.91133571  0.39071926  0.55726087     0.04000
C1239       C  0.89099139  0.41062807  0.57277127    -0.12000
C1240       C  0.89129603  0.41136167  0.60538481     0.23300
C1241       C  0.91151544  0.39174622  0.62232959    -0.12600
C1242       C  0.92846009  0.36881570  0.60677163     0.04700
C1243       C  0.87300774  0.43529264  0.62129573     0.27100
C1244       C  0.88388580  0.46567467  0.62065929    -0.13300
C1245       C  0.86583826  0.48911440  0.63391277     0.05200
C1246       C  0.83311516  0.48353144  0.64253088    -0.09300
C1247       C  0.82597043  0.45146840  0.64891255     0.06100
C1248       C  0.84554038  0.42776276  0.63747543    -0.13600
Br1249     Br  0.91758248  0.39781316  0.66630256    -0.05700
Br1250     Br  0.91831673  0.39729022  0.51371503    -0.00100
Br1251     Br  0.89228218  0.52318731  0.64810907     0.00400
Br1252     Br  0.83383508  0.38457487  0.64161613    -0.04000
Br1253     Br  0.95423095  0.34038573  0.63008945     0.00500
Br1254     Br  0.86343214  0.43758166  0.54927365    -0.03300
Br1255     Br  0.92509907  0.47456571  0.60303443    -0.04200
Br1256     Br  0.78958851  0.43729689  0.67154980    -0.00200
C1257       C  0.07772259  0.36462685  0.57533827     0.01200
C1258       C  0.10970730  0.36009604  0.58451743     0.04000
C1259       C  0.12725843  0.38452280  0.59804185    -0.12000
C1260       C  0.11301460  0.41326400  0.60381824     0.23300
C1261       C  0.08075460  0.41707669  0.59669481    -0.12600
C1262       C  0.06304242  0.39276728  0.58349760     0.04700
C1263       C  0.13199205  0.43929470  0.61756978     0.27100
C1264       C  0.13466928  0.44275423  0.64979424    -0.13300
C1265       C  0.15246398  0.46748096  0.66306165     0.05200
C1266       C  0.16643427  0.49149652  0.64371127    -0.09300
C1267       C  0.16464924  0.48554936  0.61053370     0.06100
C1268       C  0.14822404  0.45972880  0.59819923    -0.13600
Br1269     Br  0.06030003  0.45578227  0.60434493    -0.05700
Br1270     Br  0.13000753  0.32046224  0.58072754    -0.00100
Br1271     Br  0.15782027  0.46360761  0.70738167     0.00400
Br1272     Br  0.14696466  0.45193807  0.55384240    -0.04000
Br1273     Br  0.01770696  0.39723040  0.58053333     0.00500
Br1274     Br  0.17132228  0.37906672  0.60829210    -0.03300
Br1275     Br  0.11314363  0.41256816  0.67561196    -0.04200
Br1276     Br  0.18189968  0.51255415  0.57917357    -0.00200
C1277       C  0.07610135  0.36782322  0.43335307     0.01200
C1278       C  0.07446505  0.37192018  0.40098118     0.04000
C1279       C  0.09122057  0.39613328  0.38702242    -0.12000
C1280       C  0.10971366  0.41611597  0.40543827     0.23300
C1281       C  0.11151829  0.41204857  0.43777453    -0.12600
C1282       C  0.09477630  0.38775431  0.45176881     0.04700
C1283       C  0.12731290  0.44116420  0.39016502     0.27100
C1284       C  0.15618278  0.43467380  0.37638391    -0.13300
C1285       C  0.17142558  0.45725071  0.35825145     0.05200
C1286       C  0.15791832  0.48759348  0.35377112    -0.09300
C1287       C  0.12568780  0.49075699  0.36375693     0.06100
C1288       C  0.11231311  0.46922623  0.38438569    -0.13600
Br1289     Br  0.13663617  0.43983895  0.46274013    -0.05700
Br1290     Br  0.04847034  0.34524260  0.37572476    -0.00100
Br1291     Br  0.20942541  0.44370747  0.33824381     0.00400
Br1292     Br  0.07223820  0.47734888  0.40410954    -0.04000
Br1293     Br  0.09841611  0.38123923  0.49595003     0.00500
Br1294     Br  0.08868358  0.40224146  0.34260070    -0.03300
Br1295     Br  0.17450184  0.39409491  0.38269370    -0.04200
Br1296     Br  0.09381256  0.51340034  0.34162736    -0.00200
C1297       C  0.07326564  0.15773250  0.56721683     0.01200
C1298       C  0.08199856  0.13067677  0.55082699     0.04000
C1299       C  0.09828282  0.10680806  0.56627389    -0.12000
C1300       C  0.10493131  0.10926129  0.59819508     0.23300
C1301       C  0.09764719  0.13665155  0.61412742    -0.12600
C1302       C  0.08150216  0.16061971  0.59895521     0.04700
C1303       C  0.11713089  0.08226735  0.61587544     0.27100
C1304       C  0.09629080  0.05898228  0.62513227    -0.13300
C1305       C  0.10613836  0.03571203  0.64598431     0.05200
C1306       C  0.13807265  0.03495710  0.65849086    -0.09300
C1307       C  0.15970884  0.05795747  0.64564408     0.06100
C1308       C  0.14873246  0.08114226  0.62493813    -0.13600
Br1309     Br  0.10983814  0.14160388  0.65700526    -0.05700
Br1310     Br  0.07176526  0.12529731  0.50737136    -0.00100
Br1311     Br  0.07245689  0.00841981  0.65947853     0.00400
Br1312     Br  0.17696190  0.11188169  0.60704250    -0.04000
Br1313     Br  0.06844789  0.19593333  0.62319095     0.00500
Br1314     Br  0.11174960  0.07058927  0.54391551    -0.03300
Br1315     Br  0.05295381  0.06055527  0.61024318    -0.04200
Br1316     Br  0.20529978  0.05876934  0.65006499    -0.00200
C1317       C  0.92591493  0.16234713  0.57942989     0.01200
C1318       C  0.89563077  0.15068884  0.57206270     0.04000
C1319       C  0.87931469  0.13145501  0.59335609    -0.12000
C1320       C  0.89344365  0.12283874  0.62189698     0.23300
C1321       C  0.92382926  0.13445489  0.62914159    -0.12600
C1322       C  0.94002767  0.15378096  0.60793076     0.04700
C1323       C  0.88021823  0.09621071  0.64038972     0.27100
C1324       C  0.86419063  0.09987471  0.66879569    -0.13300
C1325       C  0.85363289  0.07349516  0.68619479     0.05200
C1326       C  0.86023153  0.04250634  0.67568616    -0.09300
C1327       C  0.88311961  0.04131622  0.65113848     0.06100
C1328       C  0.88807294  0.06636425  0.63110582    -0.13600
Br1329     Br  0.94388476  0.12275440  0.66773841    -0.05700
Br1330     Br  0.87749384  0.15921323  0.53184327    -0.00100
Br1331     Br  0.83173843  0.08148228  0.72473823     0.00400
Br1332     Br  0.90971226  0.05973033  0.59221785    -0.04000
Br1333     Br  0.98278283  0.16661816  0.61672531     0.00500
Br1334     Br  0.83801283  0.11559453  0.58306122    -0.03300
Br1335     Br  0.85575710  0.14124565  0.68290516    -0.04200
Br1336     Br  0.91959046  0.01484611  0.65247118    -0.00200
C1337       C  0.85749259  0.04882884  0.32000575     0.01200
C1338       C  0.84435112  0.05771253  0.34972724     0.04000
C1339       C  0.85586132  0.08362003  0.36618899    -0.12000
C1340       C  0.88472788  0.09694619  0.35827740     0.23300
C1341       C  0.89915815  0.08820287  0.33068206    -0.12600
C1342       C  0.88338493  0.06838079  0.30960107     0.04700
C1343       C  0.89984612  0.12020279  0.37907100     0.27100
C1344       C  0.90449674  0.15087770  0.36881351    -0.13300
C1345       C  0.92075880  0.17209763  0.38773638     0.05200
C1346       C  0.92759781  0.16457089  0.41915066    -0.09300
C1347       C  0.92130847  0.13408169  0.42986908     0.06100
C1348       C  0.90966884  0.11158616  0.40920447    -0.13600
Br1349     Br  0.94222757  0.10181850  0.32311385    -0.05700
Br1350     Br  0.80846578  0.03818079  0.36887838    -0.00100
Br1351     Br  0.93658630  0.20964163  0.36867251     0.00400
Br1352     Br  0.90785563  0.06866003  0.42201491    -0.04000
Br1353     Br  0.90126894  0.07091379  0.26875397     0.00500
Br1354     Br  0.83196557  0.10184866  0.39972777    -0.03300
Br1355     Br  0.88803266  0.16421387  0.32900826    -0.04200
Br1356     Br  0.92697835  0.12247932  0.47293104    -0.00200
C1357       C  0.06568017  0.16270193  0.42112596     0.01200
C1358       C  0.05086216  0.13339098  0.41685759     0.04000
C1359       C  0.06583049  0.11011204  0.39971626    -0.12000
C1360       C  0.09502381  0.11602502  0.38563801     0.23300
C1361       C  0.10966265  0.14502751  0.38901233    -0.12600
C1362       C  0.09513163  0.16846228  0.40632272     0.04700
C1363       C  0.10887676  0.09280537  0.36450387     0.27100
C1364       C  0.12751053  0.06907795  0.37631116    -0.13300
C1365       C  0.14039068  0.04671628  0.35637989     0.05200
C1366       C  0.13497280  0.04739281  0.32299723    -0.09300
C1367       C  0.11565570  0.07313590  0.31178772     0.06100
C1368       C  0.10315256  0.09506410  0.33266992    -0.13600
Br1369     Br  0.14962939  0.15253698  0.36887856    -0.05700
Br1370     Br  0.00843864  0.12522640  0.43091960    -0.00100
Br1371     Br  0.16829267  0.01796485  0.37713598     0.00400
Br1372     Br  0.07548620  0.12830198  0.31861742    -0.04000
Br1373     Br  0.11643962  0.20816744  0.40813766     0.00500
Br1374     Br  0.04595066  0.07008323  0.39441447    -0.03300
Br1375     Br  0.13557343  0.06816301  0.42072363    -0.04200
Br1376     Br  0.09890511  0.07944365  0.27019245    -0.00200
C1377       C  0.99204274  0.71163619  0.18627056     0.01200
C1378       C  0.96662822  0.70328950  0.20705288     0.04000
C1379       C  0.96346339  0.71801003  0.23603355    -0.12000
C1380       C  0.98850915  0.73482153  0.24893605     0.23300
C1381       C  0.01602877  0.73919927  0.23175981    -0.12600
C1382       C  0.01767069  0.72904117  0.20057126     0.04700
C1383       C  0.98756411  0.74315211  0.28244629     0.27100
C1384       C  0.98015778  0.77341921  0.29218522    -0.13300
C1385       C  0.97699635  0.77993247  0.32412378     0.05200
C1386       C  0.98252802  0.75648307  0.34632536    -0.09300
C1387       C  0.99054292  0.72648838  0.33648174     0.06100
C1388       C  0.99289483  0.71981238  0.30476542    -0.13600
Br1389     Br  0.05137618  0.76000876  0.25156684    -0.05700
Br1390     Br  0.93933899  0.66736139  0.20317110    -0.00100
Br1391     Br  0.96515557  0.82075818  0.33735597     0.00400
Br1392     Br  0.00385811  0.67850442  0.29185099    -0.04000
Br1393     Br  0.05599259  0.74059034  0.17966848     0.00500
Br1394     Br  0.92491069  0.71393385  0.25970751    -0.03300
Br1395     Br  0.97526155  0.80599774  0.26189395    -0.04200
Br1396     Br  0.99802055  0.69407054  0.36656725    -0.00200
C1397       C  0.00437083  0.75248766  0.63786386     0.01200
C1398       C  0.98193874  0.76481950  0.65857921     0.04000
C1399       C  0.98171353  0.75563096  0.69013615    -0.12000
C1400       C  0.00285688  0.73284282  0.70128476     0.23300
C1401       C  0.02579820  0.72125388  0.68084138    -0.12600
C1402       C  0.02811956  0.73276528  0.65020875     0.04700
C1403       C  0.00126347  0.72125315  0.73429305     0.27100
C1404       C  0.02632836  0.72596938  0.75523507    -0.13300
C1405       C  0.02711992  0.70913700  0.78319352     0.05200
C1406       C  0.99845259  0.70121772  0.79842054    -0.09300
C1407       C  0.97147040  0.69842687  0.77725107     0.06100
C1408       C  0.97515124  0.70418168  0.74494743    -0.13600
Br1409     Br  0.05286605  0.68775287  0.69393053    -0.05700
Br1410     Br  0.95304555  0.79655872  0.64464318    -0.00100
Br1411     Br  0.06078858  0.67933861  0.78241694     0.00400
Br1412     Br  0.94396155  0.68976529  0.71532916    -0.04000
Br1413     Br  0.06535013  0.72236331  0.62683308     0.00500
Br1414     Br  0.95227545  0.77466548  0.71797024    -0.03300
Br1415     Br  0.06150698  0.75227250  0.74501568    -0.04200
Br1416     Br  0.92737126  0.69492778  0.78898160    -0.00200
C1417       C  0.06553602  0.66274316  0.41955863     0.01200
C1418       C  0.09653662  0.67021523  0.40965439     0.04000
C1419       C  0.11453261  0.64823194  0.39391514    -0.12000
C1420       C  0.10292825  0.61797559  0.38998733     0.23300
C1421       C  0.07284820  0.60986774  0.40091548    -0.12600
C1422       C  0.05371223  0.63230151  0.41482270     0.04700
C1423       C  0.12355932  0.59434006  0.37617852     0.27100
C1424       C  0.12083900  0.58652968  0.34471160    -0.13300
C1425       C  0.14063911  0.56353910  0.33193972     0.05200
C1426       C  0.16410992  0.54850316  0.35127876    -0.09300
C1427       C  0.17180317  0.56530394  0.37903782     0.06100
C1428       C  0.14890045  0.58311082  0.39354435    -0.13600
Br1429     Br  0.05844821  0.56758253  0.39780930    -0.05700
Br1430     Br  0.11660772  0.70921657  0.41984287    -0.00100
Br1431     Br  0.13255279  0.55435881  0.28843441     0.00400
Br1432     Br  0.15382583  0.59413431  0.43682788    -0.04000
Br1433     Br  0.01122605  0.62054573  0.42631266     0.00500
Br1434     Br  0.15592246  0.65918492  0.37853985    -0.03300
Br1435     Br  0.08854302  0.60658538  0.31994415    -0.04200
Br1436     Br  0.21428186  0.57663039  0.39172364    -0.00200
C1437       C  0.06656278  0.65951879  0.55953959     0.01200
C1438       C  0.05684893  0.64954970  0.58911656     0.04000
C1439       C  0.07661436  0.63039410  0.60696592    -0.12000
C1440       C  0.10632169  0.62166250  0.59544153     0.23300
C1441       C  0.11540939  0.63092240  0.56532447    -0.12600
C1442       C  0.09518901  0.64928227  0.54717073     0.04700
C1443       C  0.12494272  0.59824121  0.61266652     0.27100
C1444       C  0.14559383  0.60628937  0.63707389    -0.13300
C1445       C  0.16327890  0.58297725  0.65273535     0.05200
C1446       C  0.15872657  0.55082781  0.64499823    -0.09300
C1447       C  0.13079326  0.54470578  0.62688499     0.06100
C1448       C  0.11825943  0.56717245  0.60718266    -0.13600
Br1449     Br  0.15488625  0.61774341  0.54827897    -0.05700
Br1450     Br  0.01622676  0.66160206  0.60484582    -0.00100
Br1451     Br  0.19461765  0.59713278  0.68204681     0.00400
Br1452     Br  0.08865673  0.55526331  0.57487107    -0.04000
Br1453     Br  0.10545398  0.65887975  0.50456016     0.00500
Br1454     Br  0.06243862  0.61478046  0.64656345    -0.03300
Br1455     Br  0.15107179  0.64950212  0.64701942    -0.04200
Br1456     Br  0.09974276  0.51387012  0.63784591    -0.00200
C1457       C  0.91493864  0.66331631  0.56683187     0.01200
C1458       C  0.88501610  0.67144829  0.57911989     0.04000
C1459       C  0.86785974  0.65014041  0.59720423    -0.12000
C1460       C  0.87987059  0.62041654  0.60275792     0.23300
C1461       C  0.90920305  0.61198691  0.59006897    -0.12600
C1462       C  0.92672145  0.63317599  0.57229612     0.04700
C1463       C  0.85901272  0.59606318  0.61592834     0.27100
C1464       C  0.85475822  0.59212625  0.64795061    -0.13300
C1465       C  0.83637869  0.56703584  0.65957622     0.05200
C1466       C  0.82615195  0.54237000  0.63898994    -0.09300
C1467       C  0.83246064  0.54760410  0.60625657     0.06100
C1468       C  0.84470414  0.57565276  0.59537481    -0.13600
Br1469     Br  0.92464879  0.57038432  0.59477492    -0.05700
Br1470     Br  0.86506018  0.71041967  0.56902755    -0.00100
Br1471     Br  0.82816678  0.56921032  0.70343774     0.00400
Br1472     Br  0.84344821  0.58608627  0.55142845    -0.04000
Br1473     Br  0.96645208  0.61952931  0.55529070     0.00500
Br1474     Br  0.82637402  0.66051683  0.61219509    -0.03300
Br1475     Br  0.87533466  0.62119095  0.67560421    -0.04200
Br1476     Br  0.82970196  0.51656473  0.57414581    -0.00200
C1477       C  0.90982982  0.66025540  0.42099758     0.01200
C1478       C  0.90585396  0.63017680  0.43411664     0.04000
C1479       C  0.88908298  0.60683142  0.41787896    -0.12000
C1480       C  0.87355427  0.61351808  0.38961463     0.23300
C1481       C  0.87597005  0.64374782  0.37721940    -0.12600
C1482       C  0.89522049  0.66637307  0.39178907     0.04700
C1483       C  0.85382121  0.58908226  0.37359010     0.27100
C1484       C  0.86305997  0.57655568  0.34512482    -0.13300
C1485       C  0.84405760  0.55415463  0.32967182     0.05200
C1486       C  0.81721561  0.53972549  0.34481749    -0.09300
C1487       C  0.80504832  0.55825415  0.37015533     0.06100
C1488       C  0.82428905  0.58059615  0.38539277    -0.13600
Br1489     Br  0.85180242  0.65458252  0.34059925    -0.05700
Br1490     Br  0.92099348  0.62053163  0.47544708    -0.00100
Br1491     Br  0.85555641  0.54803595  0.28638856     0.00400
Br1492     Br  0.80952733  0.60150485  0.42230936    -0.04000
Br1493     Br  0.90277115  0.70478836  0.36983775     0.00500
Br1494     Br  0.88686409  0.56535245  0.43464464    -0.03300
Br1495     Br  0.90305755  0.58969775  0.32772437    -0.04200
Br1496     Br  0.76078976  0.56320576  0.38038509    -0.00200
C1497       C  0.05701743  0.86903767  0.41203024     0.01200
C1498       C  0.06855579  0.89656988  0.42604697     0.04000
C1499       C  0.08349511  0.91946618  0.40790317    -0.12000
C1500       C  0.08596738  0.91582862  0.37556514     0.23300
C1501       C  0.07394470  0.88899698  0.36134056    -0.12600
C1502       C  0.06023576  0.86536262  0.37945647     0.04700
C1503       C  0.10115007  0.94048339  0.35653257     0.27100
C1504       C  0.08415927  0.96681070  0.34830009    -0.13300
C1505       C  0.09799540  0.99021037  0.32989880     0.05200
C1506       C  0.13109531  0.98933786  0.32114491    -0.09300
C1507       C  0.14857440  0.96269427  0.33309117     0.06100
C1508       C  0.13272656  0.93789596  0.34800411    -0.13600
Br1509     Br  0.07604475  0.88501215  0.31673300    -0.05700
Br1510     Br  0.06550906  0.90311798  0.47030270    -0.00100
Br1511     Br  0.06777141  0.02012526  0.31434997     0.00400
Br1512     Br  0.15448856  0.89979394  0.35876922    -0.04000
Br1513     Br  0.04545465  0.82855486  0.35865844     0.00500
Br1514     Br  0.10099244  0.95607457  0.42721931    -0.03300
Br1515     Br  0.04061516  0.96967007  0.36167433    -0.04200
Br1516     Br  0.19421460  0.95845930  0.33696880    -0.00200
C1517       C  0.90981848  0.86837267  0.42720529     0.01200
C1518       C  0.90626000  0.89784544  0.44126981     0.04000
C1519       C  0.89212427  0.92234498  0.42468708    -0.12000
C1520       C  0.88229249  0.91805248  0.39374358     0.23300
C1521       C  0.88322323  0.88825489  0.38066177    -0.12600
C1522       C  0.89553345  0.86322738  0.39771242     0.04700
C1523       C  0.87183829  0.94494742  0.37452580     0.27100
C1524       C  0.84007476  0.94867209  0.36684641    -0.13300
C1525       C  0.83024702  0.97145565  0.34501330     0.05200
C1526       C  0.85305478  0.99211506  0.33012039    -0.09300
C1527       C  0.88529415  0.98941971  0.34201759     0.06100
C1528       C  0.89414563  0.96577605  0.36308133    -0.13600
Br1529     Br  0.86842599  0.88159920  0.33873306    -0.05700
Br1530     Br  0.91848210  0.90495669  0.48394052    -0.00100
Br1531     Br  0.78469847  0.97205292  0.34076177     0.00400
Br1532     Br  0.93817368  0.95928221  0.37444329    -0.04000
Br1533     Br  0.89139733  0.82237104  0.37970913     0.00500
Br1534     Br  0.88641898  0.96217971  0.44403724    -0.03300
Br1535     Br  0.81010748  0.92154183  0.38776363    -0.04200
Br1536     Br  0.92124382  0.01276106  0.32684017    -0.00200
C1537       C  0.92475688  0.86646048  0.57239151     0.01200
C1538       C  0.89656899  0.85975088  0.58915859     0.04000
C1539       C  0.88224293  0.88282254  0.60714230    -0.12000
C1540       C  0.89665448  0.91189774  0.61038718     0.23300
C1541       C  0.92483567  0.91855754  0.59471684    -0.12600
C1542       C  0.93811147  0.89670944  0.57467218     0.04700
C1543       C  0.88243961  0.93548685  0.63083012     0.27100
C1544       C  0.86223224  0.95777616  0.61839156    -0.13300
C1545       C  0.84917264  0.98075160  0.63750414     0.05200
C1546       C  0.85758136  0.98323394  0.66994229    -0.09300
C1547       C  0.88134772  0.96144742  0.68086876     0.06100
C1548       C  0.89111737  0.93665534  0.66208151    -0.13600
Br1549     Br  0.94594092  0.95762061  0.60155729    -0.05700
Br1550     Br  0.87597603  0.81964864  0.58799503    -0.00100
Br1551     Br  0.82072347  0.00876887  0.61668927     0.00400
Br1552     Br  0.91920532  0.90487702  0.67806405    -0.04000
Br1553     Br  0.97478492  0.90984321  0.55122879     0.00500
Br1554     Br  0.84268776  0.87493186  0.62788496    -0.03300
Br1555     Br  0.85342411  0.95686450  0.57419911    -0.04200
Br1556     Br  0.90862487  0.96676009  0.71691727    -0.00200
C1557       C  0.06837080  0.86130321  0.56696511     0.01200
C1558       C  0.05184769  0.87587151  0.59085755     0.04000
C1559       C  0.06654115  0.89910074  0.60821585    -0.12000
C1560       C  0.09934955  0.90385396  0.60561977     0.23300
C1561       C  0.11685339  0.88640408  0.58415391    -0.12600
C1562       C  0.10107460  0.86609119  0.56383130     0.04700
C1563       C  0.11494067  0.92746833  0.62521701     0.27100
C1564       C  0.12736224  0.95422894  0.61183331    -0.13300
C1565       C  0.14333111  0.97561456  0.63056497     0.05200
C1566       C  0.13698806  0.97732842  0.66356662    -0.09300
C1567       C  0.11899705  0.95132694  0.67576701     0.06100
C1568       C  0.11466583  0.92469370  0.65753837    -0.13600
Br1569     Br  0.16222740  0.88996840  0.58292776    -0.05700
Br1570     Br  0.01096806  0.86056518  0.60314131    -0.00100
Br1571     Br  0.17597349  0.99819870  0.60899457     0.00400
Br1572     Br  0.10474894  0.88514982  0.67649571    -0.04000
Br1573     Br  0.12412412  0.84449900  0.53216215     0.00500
Br1574     Br  0.04105270  0.92514756  0.63420246    -0.03300
Br1575     Br  0.12112954  0.96266284  0.56809399    -0.04200
Br1576     Br  0.08996143  0.95095927  0.71024755    -0.00200
C1577       C  0.30576927  0.81270677  0.49048643     0.01200
C1578       C  0.29335136  0.79238305  0.46642944     0.04000
C1579       C  0.26151051  0.78288029  0.46583623    -0.12000
C1580       C  0.23958491  0.79661980  0.48533131     0.23300
C1581       C  0.24986104  0.81812773  0.50745886    -0.12600
C1582       C  0.28244506  0.82420392  0.51217836     0.04700
C1583       C  0.20552497  0.78774843  0.48322733     0.27100
C1584       C  0.18585652  0.80123897  0.46052425    -0.13300
C1585       C  0.15316334  0.79481626  0.46014168     0.05200
C1586       C  0.13989114  0.77370838  0.48191597    -0.09300
C1587       C  0.16031986  0.75892652  0.50352342     0.06100
C1588       C  0.19274217  0.76630767  0.50442145    -0.13600
Br1589     Br  0.21819015  0.83773749  0.53287719    -0.05700
Br1590     Br  0.31767651  0.77802376  0.43147291    -0.00100
Br1591     Br  0.12702345  0.81742400  0.43111928     0.00400
Br1592     Br  0.21994477  0.74730349  0.53508529    -0.04000
Br1593     Br  0.29092746  0.84260191  0.55248547     0.00500
Br1594     Br  0.24735404  0.75016407  0.43835787    -0.03300
Br1595     Br  0.20394321  0.82923658  0.43033643    -0.04200
Br1596     Br  0.14472297  0.72767269  0.53171507    -0.00200
C1597       C  0.35578612  0.78195280  0.49267986     0.01200
C1598       C  0.38117583  0.77039033  0.47344586     0.04000
C1599       C  0.39190347  0.73991024  0.47755500    -0.12000
C1600       C  0.37103551  0.71718361  0.48841492     0.23300
C1601       C  0.34265311  0.72664545  0.50157746    -0.12600
C1602       C  0.33836442  0.75795341  0.50889054     0.04700
C1603       C  0.37895077  0.68375067  0.48597338     0.27100
C1604       C  0.38447901  0.67016465  0.45670803    -0.13300
C1605       C  0.39753257  0.64024967  0.45488146     0.05200
C1606       C  0.40147344  0.62241715  0.48225058    -0.09300
C1607       C  0.38967428  0.63418594  0.51056758     0.06100
C1608       C  0.38146964  0.66541949  0.51296717    -0.13600
Br1609     Br  0.30902598  0.69713314  0.50865394    -0.05700
Br1610     Br  0.39644215  0.78704547  0.43433835    -0.00100
Br1611     Br  0.41138989  0.62538174  0.41507326     0.00400
Br1612     Br  0.37645359  0.68321009  0.55378882    -0.04000
Br1613     Br  0.31063934  0.76489586  0.54363666     0.00500
Br1614     Br  0.43445551  0.72912454  0.46599351    -0.03300
Br1615     Br  0.37452917  0.69276558  0.41913943    -0.04200
Br1616     Br  0.38334722  0.60762622  0.54628502    -0.00200
C1617       C  0.30792050  0.20476503  0.50206698     0.01200
C1618       C  0.29746369  0.23518792  0.49414560     0.04000
C1619       C  0.26626486  0.23999982  0.48539747    -0.12000
C1620       C  0.24280176  0.22280615  0.50026614     0.23300
C1621       C  0.25211632  0.19657382  0.51760227    -0.12600
C1622       C  0.28335900  0.18522204  0.51501583     0.04700
C1623       C  0.20912200  0.23245544  0.49826503     0.27100
C1624       C  0.19950626  0.26231880  0.50787052    -0.13300
C1625       C  0.16781405  0.27119722  0.50433511     0.05200
C1626       C  0.14477580  0.24878699  0.49753023    -0.09300
C1627       C  0.15405771  0.21861226  0.48986664     0.06100
C1628       C  0.18612582  0.21151919  0.48703575    -0.13600
Br1629     Br  0.22236808  0.17655958  0.54512822    -0.05700
Br1630     Br  0.31414311  0.27136944  0.51432714    -0.00100
Br1631     Br  0.15640845  0.31418847  0.50584388     0.00400
Br1632     Br  0.19806879  0.17368326  0.46663182    -0.04000
Br1633     Br  0.28836431  0.14243503  0.52705366     0.00500
Br1634     Br  0.25698419  0.27220312  0.45567111    -0.03300
Br1635     Br  0.22839026  0.29063900  0.52795298    -0.04200
Br1636     Br  0.12309441  0.18626110  0.48585300    -0.00200
C1637       C  0.44171273  0.37353853  0.47525998     0.01200
C1638       C  0.40923548  0.37007781  0.48294810     0.04000
C1639       C  0.39520744  0.34077951  0.48345163    -0.12000
C1640       C  0.41321369  0.31441674  0.47743132     0.23300
C1641       C  0.44463559  0.31755685  0.46760610    -0.12600
C1642       C  0.45890387  0.34708819  0.46620891     0.04700
C1643       C  0.39884143  0.28346218  0.48225502     0.27100
C1644       C  0.40167826  0.26866546  0.51097033    -0.13300
C1645       C  0.38674125  0.23979504  0.51656447     0.05200
C1646       C  0.36471083  0.22660924  0.49413795    -0.09300
C1647       C  0.36230563  0.24371227  0.46481070     0.06100
C1648       C  0.38050518  0.27041900  0.45891135    -0.13600
Br1649     Br  0.46782805  0.28105329  0.45637829    -0.05700
Br1650     Br  0.38255246  0.40467960  0.49387232    -0.00100
Br1651     Br  0.40235861  0.22048536  0.55393158     0.00400
Br1652     Br  0.37966149  0.29119445  0.41876223    -0.04000
Br1653     Br  0.50221598  0.35024957  0.45352049     0.00500
Br1654     Br  0.35091566  0.33693975  0.49258642    -0.03300
Br1655     Br  0.42698265  0.28911884  0.54272212    -0.04200
Br1656     Br  0.33277511  0.23504081  0.43131539    -0.00200
C1657       C  0.73053983  0.36496097  0.99534113     0.01200
C1658       C  0.73303785  0.34661131  0.96802241     0.04000
C1659       C  0.72472053  0.31494358  0.96855472    -0.12000
C1660       C  0.71353613  0.30099031  0.99594521     0.23300
C1661       C  0.71200824  0.31847076  0.02333761    -0.12600
C1662       C  0.72171114  0.34974911  0.02358670     0.04700
C1663       C  0.70579222  0.26721169  0.99651157     0.27100
C1664       C  0.67841706  0.25585445  0.98214341    -0.13300
C1665       C  0.67389944  0.22361327  0.97794807     0.05200
C1666       C  0.69249599  0.20141357  0.99577130    -0.09300
C1667       C  0.71846046  0.21492546  0.01335724     0.06100
C1668       C  0.72652290  0.24645910  0.01070082    -0.13600
Br1669     Br  0.69613851  0.29916981  0.06077812    -0.05700
Br1670     Br  0.75028992  0.36302805  0.92977068    -0.00100
Br1671     Br  0.64737982  0.21504604  0.94201349     0.00400
Br1672     Br  0.76636672  0.26176132  0.02700574    -0.04000
Br1673     Br  0.72327059  0.36980566  0.06383352     0.00500
Br1674     Br  0.72937233  0.29002902  0.93169400    -0.03300
Br1675     Br  0.64769250  0.28540472  0.96690980    -0.04200
Br1676     Br  0.74224822  0.19300861  0.04487362    -0.00200
C1677       C  0.72483597  0.15386667  0.98766117     0.01200
C1678       C  0.74235058  0.13060341  0.00482321     0.04000
C1679       C  0.77160676  0.12009127  0.99369087    -0.12000
C1680       C  0.78914038  0.13803253  0.97272397     0.23300
C1681       C  0.77512905  0.16392147  0.95904230    -0.12600
C1682       C  0.74275307  0.16971561  0.96353451     0.04700
C1683       C  0.82346711  0.13157254  0.96918667     0.27100
C1684       C  0.84321690  0.13537828  0.99521061    -0.13300
C1685       C  0.87226086  0.11995720  0.99665085     0.05200
C1686       C  0.88354703  0.10370281  0.97034704    -0.09300
C1687       C  0.86755486  0.10820133  0.94172835     0.06100
C1688       C  0.83625185  0.11927143  0.94170604    -0.13600
Br1689     Br  0.80056204  0.19162741  0.93402562    -0.05700
Br1690     Br  0.73433532  0.11625682  0.04690271    -0.00100
Br1691     Br  0.89605604  0.12232275  0.03493080     0.00400
Br1692     Br  0.81066107  0.11539990  0.90478690    -0.04000
Br1693     Br  0.72429611  0.19622496  0.93205960     0.00500
Br1694     Br  0.78900643  0.08129007  0.00848576    -0.03300
Br1695     Br  0.82936671  0.16063302  0.02943810    -0.04200
Br1696     Br  0.88883733  0.10286667  0.90267019    -0.00200
C1697       C  0.25191721  0.36303363  0.99885564     0.01200
C1698       C  0.26229857  0.34775369  0.02664824     0.04000
C1699       C  0.27013512  0.31603073  0.02639977    -0.12000
C1700       C  0.27108761  0.29965203  0.99830027     0.23300
C1701       C  0.26181684  0.31450741  0.97066396    -0.12600
C1702       C  0.25022514  0.34509976  0.97115223     0.04700
C1703       C  0.28041849  0.26626310  0.99810314     0.27100
C1704       C  0.31195338  0.25772521  0.00185755    -0.13300
C1705       C  0.32078259  0.22607729  0.00270096     0.05200
C1706       C  0.29796369  0.20130212  0.99798165    -0.09300
C1707       C  0.26531224  0.21160843  0.99962310     0.06100
C1708       C  0.25724525  0.24325261  0.99699212    -0.13600
Br1709     Br  0.26567281  0.29261946  0.93188230    -0.05700
Br1710     Br  0.26795983  0.36891638  0.06578561    -0.00100
Br1711     Br  0.36504836  0.22011271  0.01031539     0.00400
Br1712     Br  0.21345080  0.25606960  0.99417460    -0.04000
Br1713     Br  0.23020237  0.36037550  0.93367961     0.00500
Br1714     Br  0.27978267  0.29454418  0.06483064    -0.03300
Br1715     Br  0.34327971  0.29056315  0.00482978    -0.04200
Br1716     Br  0.23007317  0.18712876  0.01471779    -0.00200
C1717       C  0.13376369  0.05408467  0.97481016     0.01200
C1718       C  0.14234021  0.07572454  0.99836757     0.04000
C1719       C  0.17036768  0.09273979  0.99653489    -0.12000
C1720       C  0.19362199  0.08494467  0.97496532     0.23300
C1721       C  0.18715973  0.06113664  0.95330476    -0.12600
C1722       C  0.15701222  0.04639273  0.95250544     0.04700
C1723       C  0.22491756  0.10136590  0.97726206     0.27100
C1724       C  0.23216512  0.12582092  0.95723546    -0.13300
C1725       C  0.25818578  0.14574043  0.96336887     0.05200
C1726       C  0.27700626  0.14350558  0.99176014    -0.09300
C1727       C  0.26664141  0.11932424  0.01287531     0.06100
C1728       C  0.24354529  0.09711789  0.00387160    -0.13600
Br1729     Br  0.21969999  0.04885369  0.92492237    -0.05700
Br1730     Br  0.11893847  0.08014501  0.03664912    -0.00100
Br1731     Br  0.26317239  0.17835814  0.93307280     0.00400
Br1732     Br  0.23571504  0.06022999  0.02864522    -0.04000
Br1733     Br  0.14867347  0.01548710  0.92131354     0.00500
Br1734     Br  0.17647790  0.12742739  0.02412830    -0.03300
Br1735     Br  0.20443216  0.13284862  0.92192882    -0.04200
Br1736     Br  0.28028924  0.11396067  0.05507724    -0.00200
C1737       C  0.67817073  0.80952136  0.50203213     0.01200
C1738       C  0.69805078  0.81555130  0.47508586     0.04000
C1739       C  0.73084837  0.80961901  0.47616894    -0.12000
C1740       C  0.74454027  0.79440922  0.50151039     0.23300
C1741       C  0.72579228  0.78475129  0.52618680    -0.12600
C1742       C  0.69329869  0.79185692  0.52676445     0.04700
C1743       C  0.77890710  0.78757076  0.50171033     0.27100
C1744       C  0.78963856  0.75778007  0.49380830    -0.13300
C1745       C  0.82213377  0.75123476  0.49434883     0.05200
C1746       C  0.84404654  0.77496087  0.50083697    -0.09300
C1747       C  0.83335789  0.80514864  0.50691933     0.06100
C1748       C  0.80089132  0.81109229  0.50885770    -0.13600
Br1749     Br  0.74627217  0.76365691  0.56077495    -0.05700
Br1750     Br  0.68374947  0.82579465  0.43310833    -0.00100
Br1751     Br  0.83672941  0.70994670  0.48586141     0.00400
Br1752     Br  0.78657002  0.85162879  0.52071816    -0.04000
Br1753     Br  0.67348151  0.78035291  0.56527324     0.00500
Br1754     Br  0.75814507  0.82112687  0.44191660    -0.03300
Br1755     Br  0.75979562  0.72639454  0.48109122    -0.04200
Br1756     Br  0.86300488  0.83906931  0.50919590    -0.00200
C1757       C  0.54325073  0.64093872  0.52439343     0.01200
C1758       C  0.52607831  0.66781695  0.51686711     0.04000
C1759       C  0.54135064  0.69677565  0.51696075    -0.12000
C1760       C  0.57337357  0.69889250  0.52567299     0.23300
C1761       C  0.58983755  0.67237279  0.53537446    -0.12600
C1762       C  0.57522112  0.64332496  0.53358752     0.04700
C1763       C  0.59077663  0.72837709  0.52179844     0.27100
C1764       C  0.61118936  0.73194733  0.49685248    -0.13300
C1765       C  0.62905157  0.75931667  0.49318159     0.05200
C1766       C  0.62379358  0.78621443  0.51246235    -0.09300
C1767       C  0.60445565  0.78002818  0.54005912     0.06100
C1768       C  0.58815634  0.75159827  0.54379656    -0.13600
Br1769     Br  0.63320443  0.67577108  0.54915073    -0.05700
Br1770     Br  0.48282611  0.66463970  0.50299293    -0.00100
Br1771     Br  0.65703976  0.75806898  0.45811576     0.00400
Br1772     Br  0.56254237  0.74250093  0.58021068    -0.04000
Br1773     Br  0.60026101  0.60688693  0.54126920     0.00500
Br1774     Br  0.51929100  0.73328610  0.50304826    -0.03300
Br1775     Br  0.61198387  0.69940749  0.46578454    -0.04200
Br1776     Br  0.60210771  0.80415915  0.57802583    -0.00200
C1777       C  0.69019994  0.81596860  0.00212810     0.01200
C1778       C  0.68218473  0.79208967  0.02478751     0.04000
C1779       C  0.68980533  0.76075355  0.01939013    -0.12000
C1780       C  0.71007874  0.75264036  0.99540666     0.23300
C1781       C  0.72088735  0.77519392  0.97479557    -0.12600
C1782       C  0.71000359  0.80591288  0.97679688     0.04700
C1783       C  0.71969800  0.71991210  0.99153573     0.27100
C1784       C  0.74404217  0.70725002  0.00997861    -0.13300
C1785       C  0.75163099  0.67567690  0.00742768     0.05200
C1786       C  0.73485408  0.65664616  0.98638106    -0.09300
C1787       C  0.71236854  0.67020830  0.96612209     0.06100
C1788       C  0.70427992  0.70146342  0.96930265    -0.13600
Br1789     Br  0.75105926  0.76315431  0.94347729    -0.05700
Br1790     Br  0.66598182  0.79807737  0.06635818    -0.00100
Br1791     Br  0.78631699  0.65904992  0.03141320     0.00400
Br1792     Br  0.67102846  0.71882796  0.94390810    -0.04000
Br1793     Br  0.72317077  0.83222094  0.94310966     0.00500
Br1794     Br  0.67299811  0.72773271  0.04531750    -0.03300
Br1795     Br  0.76659945  0.73315869  0.03901704    -0.04200
Br1796     Br  0.69183736  0.64677333  0.93389602    -0.00200
C1797       C  0.71341211  0.87149242  0.00303838     0.01200
C1798       C  0.74206472  0.86323710  0.01957300     0.04000
C1799       C  0.76581181  0.88569156  0.02550058    -0.12000
C1800       C  0.76304446  0.91588519  0.01392608     0.23300
C1801       C  0.73716490  0.92340247  0.99528052    -0.12600
C1802       C  0.71604895  0.90010147  0.98585517     0.04700
C1803       C  0.79179639  0.93558197  0.01217786     0.27100
C1804       C  0.80184880  0.95437083  0.03703466    -0.13300
C1805       C  0.83182825  0.96898066  0.03616831     0.05200
C1806       C  0.85118351  0.96583495  0.00961531    -0.09300
C1807       C  0.83877048  0.94981952  0.98349164     0.06100
C1808       C  0.81023205  0.93364827  0.98533442    -0.13600
Br1809     Br  0.73394553  0.96479931  0.97812143    -0.05700
Br1810     Br  0.75351300  0.82165750  0.03286016    -0.00100
Br1811     Br  0.84623869  0.99168223  0.07201176     0.00400
Br1812     Br  0.79721742  0.90715385  0.95124317    -0.04000
Br1813     Br  0.70428195  0.90495035  0.94258051     0.00500
Br1814     Br  0.80325756  0.87546697  0.04945650    -0.03300
Br1815     Br  0.77468867  0.95902996  0.07237987    -0.04200
Br1816     Br  0.85931076  0.95035077  0.94383944    -0.00200
C1817       C  0.25420994  0.65462970  0.00715090     0.01200
C1818       C  0.25061967  0.67290081  0.97988344     0.04000
C1819       C  0.26266348  0.70325969  0.97882194    -0.12000
C1820       C  0.27640884  0.71662604  0.00541239     0.23300
C1821       C  0.27752779  0.69983465  0.03335194    -0.12600
C1822       C  0.26583251  0.66927422  0.03467058     0.04700
C1823       C  0.28529709  0.74991571  0.00490636     0.27100
C1824       C  0.31434944  0.75983568  0.99320046    -0.13300
C1825       C  0.32164217  0.79193517  0.99110246     0.05200
C1826       C  0.29866374  0.81526559  0.99954656    -0.09300
C1827       C  0.26717523  0.80277514  0.00398867     0.06100
C1828       C  0.26243659  0.77168259  0.01198755    -0.13600
Br1829     Br  0.29522477  0.71925636  0.06990866    -0.05700
Br1830     Br  0.22566128  0.65861623  0.94490499    -0.00100
Br1831     Br  0.36343367  0.80044133  0.97600523     0.00400
Br1832     Br  0.22242050  0.75809493  0.02899919    -0.04000
Br1833     Br  0.26489234  0.64959856  0.07522866     0.00500
Br1834     Br  0.26018020  0.72696508  0.94074663    -0.03300
Br1835     Br  0.34422857  0.72843859  0.98093187    -0.04200
Br1836     Br  0.22865125  0.81981713  0.98659667    -0.00200
C1837       C  0.27329757  0.86979405  0.00503701     0.01200
C1838       C  0.25704728  0.86758929  0.03465515     0.04000
C1839       C  0.22873077  0.88343156  0.04018944    -0.12000
C1840       C  0.21169723  0.89611339  0.01559172     0.23300
C1841       C  0.22554272  0.89804113  0.98623208    -0.12600
C1842       C  0.25704344  0.88825159  0.98154324     0.04700
C1843       C  0.17937364  0.90830393  0.02081712     0.27100
C1844       C  0.15350230  0.88805078  0.02530026    -0.13300
C1845       C  0.12283658  0.90003942  0.02833321     0.05200
C1846       C  0.11753888  0.93186560  0.02437307    -0.09300
C1847       C  0.14374509  0.95210849  0.02335703     0.06100
C1848       C  0.17455615  0.94043296  0.02204313    -0.13600
Br1849     Br  0.20026143  0.91420493  0.95214505    -0.05700
Br1850     Br  0.26849550  0.83992686  0.06825199    -0.00100
Br1851     Br  0.08887222  0.87342431  0.04051701     0.00400
Br1852     Br  0.21029645  0.96833001  0.02203125    -0.04000
Br1853     Br  0.27462721  0.90552855  0.94395938     0.00500
Br1854     Br  0.21226737  0.88758608  0.08186513    -0.03300
Br1855     Br  0.15964898  0.84392568  0.02666403    -0.04200
Br1856     Br  0.13768748  0.99591906  0.02614025    -0.00200
C1857       C  0.34783556  0.01048863  0.25941938     0.01200
C1858       C  0.32701412  0.03159070  0.24480385     0.04000
C1859       C  0.29505595  0.03231633  0.25333707    -0.12000
C1860       C  0.28353999  0.01172210  0.27603437     0.23300
C1861       C  0.30379193  0.99008848  0.28999381    -0.12600
C1862       C  0.33583538  0.98949645  0.28197092     0.04700
C1863       C  0.24979636  0.01242178  0.28475809     0.27100
C1864       C  0.23935348  0.03327498  0.30705082    -0.13300
C1865       C  0.20675433  0.03732232  0.31242409     0.05200
C1866       C  0.18357179  0.01603078  0.29902020    -0.09300
C1867       C  0.19622754  0.99352681  0.27744380     0.06100
C1868       C  0.22842676  0.99293031  0.26979513    -0.13600
Br1869     Br  0.28736593  0.96150200  0.32057614    -0.05700
Br1870     Br  0.34142903  0.05878172  0.21208639    -0.00100
Br1871     Br  0.19851439  0.07715051  0.33177085     0.00400
Br1872     Br  0.24434933  0.96448310  0.23890414    -0.04000
Br1873     Br  0.36283673  0.96084325  0.30397415     0.00500
Br1874     Br  0.26672690  0.06154398  0.23398590    -0.03300
Br1875     Br  0.27096882  0.05769012  0.32892623    -0.04200
Br1876     Br  0.17187448  0.96026297  0.25903558    -0.00200
C1877       C  0.80889966  0.02002974  0.29377117     0.01200
C1878       C  0.78969415  0.04771117  0.29747228     0.04000
C1879       C  0.75669699  0.04670523  0.29247150    -0.12000
C1880       C  0.74213962  0.02027561  0.28030638     0.23300
C1881       C  0.76045997  0.99493512  0.27191542    -0.12600
C1882       C  0.79339818  0.99512935  0.27701451     0.04700
C1883       C  0.70746614  0.01961139  0.27478798     0.27100
C1884       C  0.68664273  0.01672756  0.30005706    -0.13300
C1885       C  0.65388864  0.01697754  0.29485151     0.05200
C1886       C  0.64195392  0.01697547  0.26425781    -0.09300
C1887       C  0.66273426  0.01708728  0.23898265     0.06100
C1888       C  0.69528240  0.02068916  0.24419214    -0.13600
Br1889     Br  0.73920680  0.95834825  0.25576358    -0.05700
Br1890     Br  0.80562570  0.09015935  0.30027052    -0.00100
Br1891     Br  0.62538303  0.01673081  0.32961490     0.00400
Br1892     Br  0.72300944  0.02739131  0.20943385    -0.04000
Br1893     Br  0.81425975  0.95897523  0.26142097     0.00500
Br1894     Br  0.73061822  0.08256562  0.30056878    -0.03300
Br1895     Br  0.70296261  0.01151200  0.34166083    -0.04200
Br1896     Br  0.64684188  0.00944913  0.19761725    -0.00200
C1897       C  0.43161211  0.93636570  0.35444860     0.01200
C1898       C  0.44041950  0.90504140  0.35539408     0.04000
C1899       C  0.42485232  0.88440649  0.37541316    -0.12000
C1900       C  0.40236115  0.89569192  0.39643698     0.23300
C1901       C  0.39641102  0.92765529  0.39806457    -0.12600
C1902       C  0.41133500  0.94799046  0.37734996     0.04700
C1903       C  0.38751331  0.87476506  0.41938691     0.27100
C1904       C  0.35574493  0.86663046  0.41634629    -0.13300
C1905       C  0.34005296  0.85076886  0.44051528     0.05200
C1906       C  0.35787903  0.83732608  0.46629763    -0.09300
C1907       C  0.39086200  0.84643835  0.46813012     0.06100
C1908       C  0.40451190  0.86602687  0.44576438    -0.13600
Br1909     Br  0.36854353  0.94364153  0.42945155    -0.05700
Br1910     Br  0.47811576  0.89219259  0.33429169    -0.00100
Br1911     Br  0.29440986  0.85585880  0.43761169     0.00400
Br1912     Br  0.44735697  0.88130579  0.45082030    -0.04000
Br1913     Br  0.40621291  0.99169901  0.38272398     0.00500
Br1914     Br  0.43509754  0.84101165  0.37469046    -0.03300
Br1915     Br  0.33337729  0.87993102  0.37911026    -0.04200
Br1916     Br  0.42084777  0.83034294  0.49830803    -0.00200
C1917       C  0.62859497  0.83588310  0.47344194     0.01200
C1918       C  0.63870977  0.86764674  0.46777448     0.04000
C1919       C  0.62389204  0.88681892  0.44557053    -0.12000
C1920       C  0.60216947  0.87465066  0.42451453     0.23300
C1921       C  0.59399794  0.84335023  0.42638033    -0.12600
C1922       C  0.60471185  0.82455086  0.45149175     0.04700
C1923       C  0.58747078  0.89536438  0.40062525     0.27100
C1924       C  0.55790741  0.90882965  0.40613517    -0.13300
C1925       C  0.54482044  0.93012765  0.38471055     0.05200
C1926       C  0.56106589  0.93782045  0.35689127    -0.09300
C1927       C  0.59116236  0.92429772  0.35187499     0.06100
C1928       C  0.60393853  0.90303899  0.37343047    -0.13600
Br1929     Br  0.56600696  0.82729615  0.39430331    -0.05700
Br1930     Br  0.67556286  0.88652556  0.48628459    -0.00100
Br1931     Br  0.50437995  0.94777638  0.39434645     0.00400
Br1932     Br  0.64423212  0.88393516  0.36580210    -0.04000
Br1933     Br  0.57947259  0.78720247  0.45480209     0.00500
Br1934     Br  0.63346111  0.93075966  0.44332302    -0.03300
Br1935     Br  0.53533843  0.89754571  0.44335274    -0.04200
Br1936     Br  0.61666432  0.93563254  0.31652153    -0.00200
C1937       C  0.35256864  0.17693057  0.46793777     0.01200
C1938       C  0.33029626  0.16675581  0.44433447     0.04000
C1939       C  0.34118624  0.15542480  0.41562316    -0.12000
C1940       C  0.37284074  0.14760423  0.41194049     0.23300
C1941       C  0.39458918  0.15382144  0.43553443    -0.12600
C1942       C  0.38549863  0.17041998  0.46185067     0.04700
C1943       C  0.38366934  0.13110627  0.38403061     0.27100
C1944       C  0.37532417  0.09982267  0.37954768    -0.13300
C1945       C  0.39002677  0.08292306  0.35617460     0.05200
C1946       C  0.41667778  0.09519991  0.34140779    -0.09300
C1947       C  0.42303004  0.12720792  0.34348872     0.06100
C1948       C  0.40553864  0.14544804  0.36399909    -0.13600
Br1949     Br  0.43718258  0.13780772  0.43217153    -0.05700
Br1950     Br  0.28493299  0.16776792  0.44696180    -0.00100
Br1951     Br  0.37022460  0.04611806  0.34023846     0.00400
Br1952     Br  0.41248743  0.18960681  0.36603055    -0.04000
Br1953     Br  0.42025854  0.18079451  0.48941884     0.00500
Br1954     Br  0.31315061  0.15148950  0.38004034    -0.03300
Br1955     Br  0.34578021  0.07910793  0.40649900    -0.04200
Br1956     Br  0.45519853  0.14615410  0.31821063    -0.00200
C1957       C  0.49022624  0.16135659  0.24210346     0.01200
C1958       C  0.46414415  0.17560632  0.22673367     0.04000
C1959       C  0.46506717  0.20740429  0.21940725    -0.12000
C1960       C  0.49051882  0.22602779  0.22935517     0.23300
C1961       C  0.51430175  0.21291046  0.24810130    -0.12600
C1962       C  0.51466077  0.18073397  0.25392422     0.04700
C1963       C  0.49214405  0.25938933  0.22007735     0.27100
C1964       C  0.51409520  0.26963495  0.19814017    -0.13300
C1965       C  0.51671717  0.30145878  0.19051814     0.05200
C1966       C  0.49140901  0.32279902  0.19795165    -0.09300
C1967       C  0.46826787  0.31041314  0.21953056     0.06100
C1968       C  0.47137746  0.28069190  0.23281199    -0.13600
Br1969     Br  0.54604319  0.23954095  0.26635113    -0.05700
Br1970     Br  0.42608088  0.15306829  0.21558058    -0.00100
Br1971     Br  0.55878720  0.31221574  0.17630809     0.00400
Br1972     Br  0.44631288  0.26824871  0.26827298    -0.04000
Br1973     Br  0.54789179  0.16430754  0.28004966     0.00500
Br1974     Br  0.43134309  0.22536739  0.19504233    -0.03300
Br1975     Br  0.54144807  0.23943243  0.17913056    -0.04200
Br1976     Br  0.42818876  0.32906700  0.22849606    -0.00200
C1977       C  0.49464798  0.86923101  0.23182169     0.01200
C1978       C  0.51303595  0.85906713  0.20659022     0.04000
C1979       C  0.51489405  0.82742798  0.19899396    -0.12000
C1980       C  0.49632210  0.80561122  0.21494065     0.23300
C1981       C  0.47527944  0.81583067  0.23782540    -0.12600
C1982       C  0.47385996  0.84748514  0.24577524     0.04700
C1983       C  0.49787214  0.77202800  0.20691357     0.27100
C1984       C  0.47690139  0.75912491  0.18534731    -0.13300
C1985       C  0.47453717  0.72654368  0.18167251     0.05200
C1986       C  0.49878703  0.70600027  0.19417066    -0.09300
C1987       C  0.52214801  0.72154339  0.21372488     0.06100
C1988       C  0.51943466  0.75297459  0.22202778    -0.13600
Br1989     Br  0.44790852  0.78613245  0.25783310    -0.05700
Br1990     Br  0.52922008  0.88867648  0.17763110    -0.00100
Br1991     Br  0.43341835  0.71455678  0.16539357     0.00400
Br1992     Br  0.54573676  0.77088784  0.25444134    -0.04000
Br1993     Br  0.44077390  0.86049338  0.27307797     0.00500
Br1994     Br  0.54190157  0.81398190  0.16579505    -0.03300
Br1995     Br  0.44979048  0.78712996  0.16231782    -0.04200
Br1996     Br  0.56161932  0.70398551  0.22725821    -0.00200
C1997       C  0.67466109  0.14995829  0.02622344     0.01200
C1998       C  0.66415027  0.16782344  0.05307558     0.04000
C1999       C  0.64764687  0.15347102  0.07799103    -0.12000
C2000       C  0.63953358  0.12208460  0.07716592     0.23300
C2001       C  0.64938517  0.10403796  0.05231626    -0.12600
C2002       C  0.66634712  0.11724291  0.02732782     0.04700
C2003       C  0.61862432  0.10838770  0.10164346     0.27100
C2004       C  0.63062513  0.10149924  0.13141145    -0.13300
C2005       C  0.61039123  0.09065047  0.15501588     0.05200
C2006       C  0.57833563  0.08323314  0.14816080    -0.09300
C2007       C  0.56657888  0.08981684  0.11792078     0.06100
C2008       C  0.58640112  0.10310958  0.09524349    -0.13600
Br2009     Br  0.63908594  0.06019907  0.05320405    -0.05700
Br2010     Br  0.66393962  0.21267121  0.05716830    -0.00100
Br2011     Br  0.62756050  0.08726112  0.19655909     0.00400
Br2012     Br  0.56933119  0.11452645  0.05513123    -0.04000
Br2013     Br  0.67871687  0.08747504  0.99629853     0.00500
Br2014     Br  0.63299023  0.17720886  0.11340036    -0.03300
Br2015     Br  0.67523789  0.10643916  0.13952015    -0.04200
Br2016     Br  0.52279643  0.08270447  0.10727842    -0.00200
C2017       C  0.57748907  0.94543344  0.15006630     0.01200
C2018       C  0.57462619  0.95251733  0.11776898     0.04000
C2019       C  0.58880476  0.93347798  0.09543436    -0.12000
C2020       C  0.60716783  0.90807606  0.10467594     0.23300
C2021       C  0.61052427  0.90092613  0.13635477    -0.12600
C2022       C  0.59723841  0.92013789  0.15905836     0.04700
C2023       C  0.62569833  0.89068042  0.08139824     0.27100
C2024       C  0.61150719  0.86819707  0.06251521    -0.13300
C2025       C  0.62914607  0.85358483  0.03899903     0.05200
C2026       C  0.66271050  0.85899057  0.03607723    -0.09300
C2027       C  0.67677862  0.87602850  0.06121864     0.06100
C2028       C  0.65837443  0.89497667  0.08012844    -0.13600
Br2029     Br  0.63242726  0.86349331  0.14836270    -0.05700
Br2030     Br  0.55409907  0.98969351  0.10267197    -0.00100
Br2031     Br  0.60628604  0.82399266  0.01410537     0.00400
Br2032     Br  0.67871404  0.92613573  0.10555354    -0.04000
Br2033     Br  0.60746525  0.91032613  0.20197318     0.00500
Br2034     Br  0.58238989  0.94172760  0.05173760    -0.03300
Br2035     Br  0.56777210  0.85747161  0.06961139    -0.04200
Br2036     Br  0.71389032  0.86258846  0.08309118    -0.00200
C2037       C  0.41921246  0.94072007  0.14817259     0.01200
C2038       C  0.43380351  0.92622374  0.12271964     0.04000
C2039       C  0.41568070  0.90842904  0.10177140    -0.12000
C2040       C  0.38281213  0.90526681  0.10573240     0.23300
C2041       C  0.36833211  0.91901562  0.13149268    -0.12600
C2042       C  0.38630375  0.93672227  0.15256945     0.04700
C2043       C  0.36284788  0.89086927  0.08096954     0.27100
C2044       C  0.34838789  0.90998562  0.05905371    -0.13300
C2045       C  0.33013446  0.89735522  0.03470941     0.05200
C2046       C  0.32575916  0.86411976  0.03099873    -0.09300
C2047       C  0.34016560  0.84514372  0.05516204     0.06100
C2048       C  0.35804929  0.85883397  0.07964987    -0.13600
Br2049     Br  0.32343236  0.91410669  0.13725415    -0.05700
Br2050     Br  0.47881871  0.92960442  0.11677352    -0.00100
Br2051     Br  0.31490053  0.92825466  0.00577059     0.00400
Br2052     Br  0.37644692  0.83405783  0.11267185    -0.04000
Br2053     Br  0.36481846  0.95675073  0.18638105     0.00500
Br2054     Br  0.43610800  0.88823485  0.06768846    -0.03300
Br2055     Br  0.35493140  0.95448273  0.06245536    -0.04200
Br2056     Br  0.33705749  0.80066757  0.05848941    -0.00200
C2057       C  0.33119928  0.15877099  0.02521991     0.01200
C2058       C  0.36318095  0.14672529  0.02241637     0.04000
C2059       C  0.37850262  0.13274798  0.04777228    -0.12000
C2060       C  0.36717098  0.13682695  0.07765477     0.23300
C2061       C  0.34151340  0.15641813  0.08239999    -0.12600
C2062       C  0.32357009  0.16760712  0.05673007     0.04700
C2063       C  0.38371890  0.12102543  0.10366991     0.27100
C2064       C  0.37613461  0.08991627  0.11044560    -0.13300
C2065       C  0.39517341  0.07271230  0.13085413     0.05200
C2066       C  0.42258095  0.08607655  0.14357256    -0.09300
C2067       C  0.43078069  0.11686085  0.13626832     0.06100
C2068       C  0.41080968  0.13467350  0.11714462    -0.13600
Br2069     Br  0.33083586  0.16676510  0.12468203    -0.05700
Br2070     Br  0.39255449  0.15435724  0.98873480    -0.00100
Br2071     Br  0.38429812  0.03043254  0.14082945     0.00400
Br2072     Br  0.42104816  0.17736140  0.10844319    -0.04000
Br2073     Br  0.28843487  0.19336911  0.06791838     0.00500
Br2074     Br  0.41678628  0.10882108  0.04208295    -0.03300
Br2075     Br  0.34073250  0.07016026  0.09039985    -0.04200
Br2076     Br  0.47041928  0.13376420  0.15069781    -0.00200
C2077       C  0.68934841  0.20426769  0.50504868     0.01200
C2078       C  0.70977084  0.19320638  0.48067076     0.04000
C2079       C  0.74282882  0.19593671  0.48371518    -0.12000
C2080       C  0.75585898  0.21663982  0.50516165     0.23300
C2081       C  0.73653484  0.23071744  0.52693867    -0.12600
C2082       C  0.70487306  0.22169603  0.52945721     0.04700
C2083       C  0.78951887  0.22561666  0.50382882     0.27100
C2084       C  0.80940403  0.21904194  0.52918884    -0.13300
C2085       C  0.83945285  0.23265530  0.53101124     0.05200
C2086       C  0.85190584  0.24880958  0.50486959    -0.09300
C2087       C  0.83197521  0.25426019  0.47877975     0.06100
C2088       C  0.80049261  0.24410395  0.47916488    -0.13600
Br2089     Br  0.75314227  0.26454132  0.55191080    -0.05700
Br2090     Br  0.69693651  0.18095460  0.43929719    -0.00900
Br2091     Br  0.86151307  0.22937569  0.57045940     0.00400
Br2092     Br  0.77192235  0.25682793  0.44639688    -0.04000
Br2093     Br  0.68547807  0.23506412  0.56723129     0.00500
Br2094     Br  0.77087212  0.17285120  0.45717733    -0.03300
Br2095     Br  0.79488766  0.19166598  0.56187697    -0.04200
Br2096     Br  0.84616825  0.27672199  0.44243388    -0.00200
C2097       C  0.55993014  0.09684404  0.35475524     0.01200
C2098       C  0.54138269  0.10519092  0.38068784     0.04000
C2099       C  0.55523661  0.11983332  0.40658320    -0.12000
C2100       C  0.58737217  0.12773016  0.40630032     0.23300
C2101       C  0.60554600  0.12145816  0.37976213    -0.12600
C2102       C  0.59200592  0.10612085  0.35406850     0.04700
C2103       C  0.60178261  0.14525608  0.43253169     0.27100
C2104       C  0.60306377  0.17740252  0.43067155    -0.13300
C2105       C  0.62320210  0.19436377  0.45045963     0.05200
C2106       C  0.63859767  0.18002864  0.47710729    -0.09300
C2107       C  0.63902078  0.14666607  0.47611542     0.06100
C2108       C  0.61925662  0.12993700  0.45547345    -0.13600
Br2109     Br  0.64923312  0.13428068  0.37866871    -0.05700
Br2110     Br  0.49628998  0.09951778  0.37996335    -0.00100
Br2111     Br  0.63326201  0.23495343  0.43412330     0.00400
Br2112     Br  0.61717092  0.08517945  0.45697386    -0.04000
Br2113     Br  0.61804490  0.09828255  0.31836364     0.00500
Br2114     Br  0.53028297  0.12959930  0.44251931    -0.03300
Br2115     Br  0.57681081  0.19812952  0.40001182    -0.04200
Br2116     Br  0.67420489  0.12254656  0.49039714    -0.00200
C2117       C  0.57051399  0.38519921  0.50942807     0.01200
C2118       C  0.58001231  0.37023246  0.48138372     0.04000
C2119       C  0.59072062  0.33958023  0.48202133    -0.12000
C2120       C  0.59303342  0.32348108  0.51023349     0.23300
C2121       C  0.58479218  0.33804468  0.53811269    -0.12600
C2122       C  0.57290223  0.36848189  0.53778689     0.04700
C2123       C  0.60699043  0.29213928  0.51017529     0.27100
C2124       C  0.58809024  0.26576804  0.50552535    -0.13300
C2125       C  0.60198622  0.23612928  0.50354153     0.05200
C2126       C  0.63596535  0.23295515  0.50392273    -0.09300
C2127       C  0.65356030  0.26153325  0.50107151     0.06100
C2128       C  0.63973654  0.28968832  0.50895582    -0.13600
Br2129     Br  0.59032338  0.31615451  0.57682826    -0.05700
Br2130     Br  0.57876908  0.39005359  0.44080424    -0.00100
Br2131     Br  0.57282397  0.20112545  0.50254434     0.00400
Br2132     Br  0.66573818  0.32625039  0.51460576    -0.04000
Br2133     Br  0.55790912  0.38535175  0.57628855     0.00500
Br2134     Br  0.60297904  0.31924254  0.44393167    -0.03300
Br2135     Br  0.54289934  0.27060547  0.50325030    -0.04200
Br2136     Br  0.69089537  0.26721205  0.47555323    -0.00200
C2137       C  0.34657934  0.00743542  0.73889235     0.01200
C2138       C  0.32655590  0.98211373  0.74620743     0.04000
C2139       C  0.29483837  0.98215887  0.73631456    -0.12000
C2140       C  0.28315994  0.00683939  0.71823048     0.23300
C2141       C  0.30254626  0.03245779  0.71176068    -0.12600
C2142       C  0.33331858  0.03384546  0.72383324     0.04700
C2143       C  0.24958841  0.00717366  0.70841170     0.27100
C2144       C  0.23885152  0.98767066  0.68485294    -0.13300
C2145       C  0.20624768  0.98376638  0.67964512     0.05200
C2146       C  0.18402439  0.00680774  0.69064784    -0.09300
C2147       C  0.19698624  0.02858938  0.71291324     0.06100
C2148       C  0.22829517  0.02624287  0.72366261    -0.13600
Br2149     Br  0.28691212  0.06568196  0.68575205    -0.05700
Br2150     Br  0.34107604  0.94860103  0.77240677    -0.00100
Br2151     Br  0.19681029  0.94210174  0.66526174     0.00400
Br2152     Br  0.24279267  0.04987459  0.75925512    -0.04000
Br2153     Br  0.35503607  0.07336291  0.72062912     0.00500
Br2154     Br  0.26690987  0.94869161  0.74800681    -0.03300
Br2155     Br  0.26940373  0.96506150  0.66069353    -0.04200
Br2156     Br  0.17562794  0.06495215  0.72745265    -0.00200
C2157       C  0.80606907  0.01217470  0.68762999     0.01200
C2158       C  0.78751649  0.98499407  0.69339644     0.04000
C2159       C  0.75898660  0.98644049  0.71007702    -0.12000
C2160       C  0.74332424  0.01469282  0.71364613     0.23300
C2161       C  0.75732211  0.04128266  0.70061529    -0.12600
C2162       C  0.78709026  0.03968272  0.68560167     0.04700
C2163       C  0.70897827  0.01466579  0.72268088     0.27100
C2164       C  0.68594443  0.00620910  0.70042259    -0.13300
C2165       C  0.65372382  0.00498987  0.70838066     0.05200
C2166       C  0.64365539  0.01208640  0.73869781    -0.09300
C2167       C  0.66647913  0.02199515  0.76063108     0.06100
C2168       C  0.69900968  0.02279147  0.75282063    -0.13600
Br2169     Br  0.73426389  0.07971950  0.70144298    -0.05700
Br2170     Br  0.78960573  0.94965857  0.66598751    -0.00100
Br2171     Br  0.62307822  0.99580111  0.67675057     0.00400
Br2172     Br  0.73006291  0.03479544  0.78332370    -0.04000
Br2173     Br  0.79185213  0.06964220  0.65236308     0.00500
Br2174     Br  0.73957311  0.94884926  0.72526401    -0.03300
Br2175     Br  0.69860306  0.99654568  0.65853741    -0.04200
Br2176     Br  0.65305747  0.03498790  0.80114653    -0.00200
C2177       C  0.42505374  0.08490144  0.64862338     0.01200
C2178       C  0.43870053  0.11302998  0.63902223     0.04000
C2179       C  0.42340314  0.13122474  0.61647825    -0.12000
C2180       C  0.39387163  0.12181971  0.60443126     0.23300
C2181       C  0.37987449  0.09403028  0.61485058    -0.12600
C2182       C  0.39564153  0.07545655  0.63670944     0.04700
C2183       C  0.37891507  0.13932332  0.57867097     0.27100
C2184       C  0.35744753  0.16316939  0.58436864    -0.13300
C2185       C  0.34571918  0.18144179  0.55943951     0.05200
C2186       C  0.35301120  0.17365980  0.52766970    -0.09300
C2187       C  0.36630231  0.14304505  0.52407966     0.06100
C2188       C  0.38357400  0.12950935  0.54829633    -0.13600
Br2189     Br  0.33958329  0.08093310  0.59834504    -0.05700
Br2190     Br  0.47827168  0.12654422  0.65692386    -0.00100
Br2191     Br  0.32225820  0.21764264  0.57136375     0.00400
Br2192     Br  0.41144716  0.09515605  0.54013560    -0.04000
Br2193     Br  0.37742471  0.03666812  0.64987435     0.00500
Br2194     Br  0.44364732  0.16819421  0.60133654    -0.03300
Br2195     Br  0.34446156  0.17036682  0.62662427    -0.04200
Br2196     Br  0.35356535  0.11286114  0.49287735    -0.00200
C2197       C  0.64348569  0.18327103  0.53849214     0.01200
C2198       C  0.61822644  0.19266925  0.55882358     0.04000
C2199       C  0.60284484  0.17081455  0.57786130    -0.12000
C2200       C  0.61557009  0.14133160  0.58212438     0.23300
C2201       C  0.64474768  0.13448305  0.56892518    -0.12600
C2202       C  0.66011949  0.15652830  0.55003321     0.04700
C2203       C  0.60063459  0.11975819  0.60463469     0.27100
C2204       C  0.61251022  0.11744548  0.63514459    -0.13300
C2205       C  0.59773428  0.09788496  0.65686805     0.05200
C2206       C  0.56870838  0.08302554  0.64931076    -0.09300
C2207       C  0.55657679  0.08608972  0.61849662     0.06100
C2208       C  0.57312288  0.10357978  0.59620978    -0.13600
Br2209     Br  0.66430314  0.09503928  0.57792542    -0.05700
Br2210     Br  0.61013906  0.23477340  0.57210279    -0.00100
Br2211     Br  0.61929775  0.09055041  0.69593387     0.00400
Br2212     Br  0.55743334  0.10693688  0.55406301    -0.04000
Br2213     Br  0.70588591  0.15323978  0.55135516     0.00500
Br2214     Br  0.56492097  0.18181986  0.60017214    -0.03300
Br2215     Br  0.64815149  0.14265288  0.64771692    -0.04200
Br2216     Br  0.51645498  0.06845298  0.60590004    -0.00200
C2217       C  0.57112001  0.93799426  0.64800718     0.01200
C2218       C  0.58065578  0.90711811  0.65351123     0.04000
C2219       C  0.59954432  0.89206708  0.63189602    -0.12000
C2220       C  0.60627832  0.90646091  0.60338383     0.23300
C2221       C  0.59794167  0.93741698  0.59807124    -0.12600
C2222       C  0.58038084  0.95333591  0.62028993     0.04700
C2223       C  0.61678345  0.88742289  0.57720012     0.27100
C2224       C  0.64829275  0.87925002  0.57437123    -0.13300
C2225       C  0.65784281  0.85819615  0.55125268     0.05200
C2226       C  0.63458673  0.84378581  0.53053786    -0.09300
C2227       C  0.60264658  0.85562497  0.53291265     0.06100
C2228       C  0.59432727  0.87694533  0.55591692    -0.13600
Br2229     Br  0.60993082  0.95728511  0.55959697    -0.05700
Br2230     Br  0.56500790  0.88338161  0.68846539    -0.00100
Br2231     Br  0.70356681  0.85539025  0.54958131     0.00400
Br2232     Br  0.55069738  0.88995019  0.56078574    -0.04000
Br2233     Br  0.56947149  0.99592271  0.61174819     0.00500
Br2234     Br  0.61623788  0.85170874  0.64160106    -0.03300
Br2235     Br  0.67819155  0.89874176  0.60277954    -0.04200
Br2236     Br  0.56656853  0.83933080  0.51037839    -0.00200
C2237       C  0.35432157  0.83483648  0.52467168     0.01200
C2238       C  0.35202126  0.86836329  0.52552038     0.04000
C2239       C  0.36825108  0.88611129  0.54796177    -0.12000
C2240       C  0.38114278  0.87200929  0.57429000     0.23300
C2241       C  0.37992519  0.83975519  0.57691887    -0.12600
C2242       C  0.37076090  0.82123697  0.55124995     0.04700
C2243       C  0.39656960  0.89127210  0.59893181     0.27100
C2244       C  0.42977568  0.89268940  0.60135251    -0.13300
C2245       C  0.44433804  0.91171842  0.62384643     0.05200
C2246       C  0.42587988  0.92992184  0.64381412    -0.09300
C2247       C  0.39265098  0.92827945  0.64156445     0.06100
C2248       C  0.37809128  0.90890956  0.61936581    -0.13600
Br2249     Br  0.39254085  0.82119350  0.61608933    -0.05700
Br2250     Br  0.32478578  0.89240646  0.49875149    -0.00100
Br2251     Br  0.48960996  0.91133240  0.62849274     0.00400
Br2252     Br  0.33268706  0.90616498  0.61708362    -0.04000
Br2253     Br  0.38938217  0.78034183  0.55382894     0.00500
Br2254     Br  0.37315524  0.93045827  0.54277317    -0.03300
Br2255     Br  0.45541678  0.86848950  0.57379407    -0.04200
Br2256     Br  0.36686883  0.95309674  0.66842070    -0.00200
C2257       C  0.49047398  0.15133277  0.76633963     0.01200
C2258       C  0.47097777  0.16209293  0.79058272     0.04000
C2259       C  0.47313956  0.19283511  0.80080642    -0.12000
C2260       C  0.49192464  0.21423949  0.78465588     0.23300
C2261       C  0.51070348  0.20402526  0.75975539    -0.12600
C2262       C  0.51057743  0.17257441  0.75113750     0.04700
C2263       C  0.48954014  0.24778594  0.79223569     0.27100
C2264       C  0.46254702  0.26413894  0.78359450    -0.13300
C2265       C  0.46011652  0.29614951  0.78955940     0.05200
C2266       C  0.48605774  0.31389286  0.80259859    -0.09300
C2267       C  0.51403843  0.29580374  0.81038945     0.06100
C2268       C  0.51416304  0.26314817  0.80739536    -0.13600
Br2269     Br  0.53653203  0.23299370  0.73712795    -0.05700
Br2270     Br  0.44037639  0.13581368  0.80998833    -0.00100
Br2271     Br  0.42045472  0.31328304  0.77684534     0.00400
Br2272     Br  0.54901009  0.23834737  0.82288197    -0.04000
Br2273     Br  0.53657253  0.15917428  0.71711817     0.00500
Br2274     Br  0.45042569  0.20594231  0.83725030    -0.03300
Br2275     Br  0.42888554  0.24192742  0.76212361    -0.04200
Br2276     Br  0.55610108  0.31173590  0.81851500    -0.00200
C2277       C  0.49672532  0.86107876  0.75508865     0.01200
C2278       C  0.51273200  0.84821225  0.78093009     0.04000
C2279       C  0.50850927  0.81686674  0.78875223    -0.12000
C2280       C  0.49010447  0.79740309  0.76971941     0.23300
C2281       C  0.47492101  0.80982995  0.74325621    -0.12600
C2282       C  0.47799422  0.84161218  0.73607461     0.04700
C2283       C  0.48865954  0.76350994  0.77649026     0.27100
C2284       C  0.51149786  0.74396102  0.76428522    -0.13300
C2285       C  0.51236588  0.71224743  0.77264832     0.05200
C2286       C  0.48896105  0.69843485  0.79298257    -0.09300
C2287       C  0.46250882  0.71866918  0.79989528     0.06100
C2288       C  0.46453877  0.75098617  0.79460026    -0.13600
Br2289     Br  0.44952140  0.78323287  0.71723786    -0.05700
Br2290     Br  0.53984115  0.87330443  0.80675452    -0.00100
Br2291     Br  0.54881689  0.69102608  0.75732318     0.00400
Br2292     Br  0.43350685  0.77894654  0.81145242    -0.04000
Br2293     Br  0.45774865  0.85809319  0.69933043     0.00500
Br2294     Br  0.52665034  0.80098122  0.82667251    -0.03300
Br2295     Br  0.54306828  0.76206155  0.73715360    -0.04200
Br2296     Br  0.41955415  0.70537767  0.80894909    -0.00200
C2297       C  0.41459686  0.07560908  0.85034949     0.01200
C2298       C  0.38232984  0.08191270  0.84437934     0.04000
C2299       C  0.36576469  0.10226327  0.86358791    -0.12000
C2300       C  0.38114685  0.11650766  0.88878004     0.23300
C2301       C  0.41363568  0.11167010  0.89371757    -0.12600
C2302       C  0.43018228  0.09070439  0.87516058     0.04700
C2303       C  0.36187431  0.13010177  0.91382784     0.27100
C2304       C  0.35590246  0.16183960  0.91543108    -0.13300
C2305       C  0.33780288  0.17435348  0.94002359     0.05200
C2306       C  0.32682524  0.15464257  0.96529068    -0.09300
C2307       C  0.33371253  0.12172457  0.96198881     0.06100
C2308       C  0.34963693  0.11010064  0.93611972    -0.13600
Br2309     Br  0.43582733  0.13421060  0.92553012    -0.05700
Br2310     Br  0.35982425  0.06183384  0.81086815    -0.00100
Br2311     Br  0.32970479  0.21812880  0.93489301     0.00400
Br2312     Br  0.35675109  0.06578901  0.93146197    -0.04000
Br2313     Br  0.47465103  0.08438539  0.88311771     0.00500
Br2314     Br  0.32140937  0.10972564  0.85656010    -0.03300
Br2315     Br  0.37325196  0.18780330  0.88289576    -0.04200
Br2316     Br  0.32771418  0.09042580  0.99399729    -0.00200
C2317       C  0.41246235  0.93225758  0.84734184     0.01200
C2318       C  0.38728693  0.94761776  0.86172434     0.04000
C2319       C  0.36854395  0.93201600  0.88367037    -0.12000
C2320       C  0.37472042  0.90083440  0.89114857     0.23300
C2321       C  0.39926090  0.88513371  0.87595692    -0.12600
C2322       C  0.41782155  0.90072947  0.85380833     0.04700
C2323       C  0.35844801  0.88603251  0.91787966     0.27100
C2324       C  0.37022868  0.89130113  0.94764926    -0.13300
C2325       C  0.35748072  0.87540870  0.97305281     0.05200
C2326       C  0.32666828  0.86071057  0.97103315    -0.09300
C2327       C  0.31746246  0.85234971  0.93981704     0.06100
C2328       C  0.33340332  0.86507844  0.91373792    -0.13600
Br2329     Br  0.40844184  0.84271355  0.88667716    -0.05700
Br2330     Br  0.37808489  0.98988127  0.85086956    -0.00100
Br2331     Br  0.38969286  0.86634779  0.00404330     0.00400
Br2332     Br  0.31982757  0.85582673  0.87185477    -0.04000
Br2333     Br  0.45098532  0.87909491  0.83268668     0.00500
Br2334     Br  0.33536491  0.95375763  0.90469312    -0.03300
Br2335     Br  0.40593210  0.91902016  0.95340936    -0.04200
Br2336     Br  0.28241649  0.82536190  0.93025843    -0.00200
C2337       C  0.65718416  0.86246252  0.97756923     0.01200
C2338       C  0.64617082  0.84315747  0.95203554     0.04000
C2339       C  0.63091557  0.85640034  0.92586005    -0.12000
C2340       C  0.62131984  0.88725106  0.92613230     0.23300
C2341       C  0.62652123  0.90520675  0.95256564    -0.12600
C2342       C  0.64424791  0.89356620  0.97785771     0.04700
C2343       C  0.60329259  0.90071277  0.89963865     0.27100
C2344       C  0.61918470  0.91560044  0.87511490    -0.13300
C2345       C  0.60221614  0.93304301  0.85309643     0.05200
C2346       C  0.56899590  0.93469070  0.85466595    -0.09300
C2347       C  0.55304619  0.91922247  0.87902419     0.06100
C2348       C  0.57018226  0.90203579  0.90116011    -0.13600
Br2349     Br  0.61080313  0.94738111  0.95254736    -0.05700
Br2350     Br  0.64376332  0.79823866  0.95204150    -0.00100
Br2351     Br  0.62510571  0.95714524  0.82275306     0.00400
Br2352     Br  0.54851207  0.88049700  0.93417015    -0.04000
Br2353     Br  0.65258854  0.92402262  0.00988967     0.00500
Br2354     Br  0.62161230  0.83212655  0.88910519    -0.03300
Br2355     Br  0.66427557  0.91229162  0.87160267    -0.04200
Br2356     Br  0.50776838  0.92130790  0.88270233    -0.00200
C2357       C  0.56412953  0.07731210  0.85797294     0.01200
C2358       C  0.57647615  0.06144188  0.88408572     0.04000
C2359       C  0.59242532  0.07795798  0.90752066    -0.12000
C2360       C  0.59781156  0.10997042  0.90409204     0.23300
C2361       C  0.58506209  0.12594382  0.87850386    -0.12600
C2362       C  0.56755618  0.10983531  0.85593248     0.04700
C2363       C  0.62031747  0.12585426  0.92519909     0.27100
C2364       C  0.61006676  0.13974702  0.95240154    -0.13300
C2365       C  0.63182087  0.15441699  0.97252943     0.05200
C2366       C  0.66569510  0.15209598  0.96796215    -0.09300
C2367       C  0.67498697  0.13477057  0.94037595     0.06100
C2368       C  0.65231494  0.12541740  0.91818798    -0.13600
Br2369     Br  0.59299832  0.16973144  0.87380470    -0.05700
Br2370     Br  0.57437494  0.01685928  0.88678049    -0.00100
Br2371     Br  0.61230365  0.17985236  0.00387454     0.00400
Br2372     Br  0.66465810  0.10937811  0.87787929    -0.04000
Br2373     Br  0.54764660  0.13292422  0.82292822     0.00500
Br2374     Br  0.60785130  0.05672319  0.94405309    -0.03300
Br2375     Br  0.56531866  0.13903196  0.96119028    -0.04200
Br2376     Br  0.71504855  0.11446122  0.93221477    -0.00200
loop_ 
_geom_bond_atom_site_label_1 
_geom_bond_atom_site_label_2 
_geom_bond_distance 
_geom_bond_site_symmetry_2 
_ccdc_geom_bond_type 
O1          Zr37   2.438       .  S
O1           C12   1.292       .  A
O2          Zr36   2.433       .  S
O2           C13   1.290       .  A
O3           Zr9   2.460       .  S
O3           C14   1.295       .  A
O4           Zr9   2.454       .  S
O4           C15   1.295       .  A
O5          Zr39   2.434       .  S
O5           C15   1.290       .  A
O6          Zr38   2.485       .  S
O6           C14   1.301   1_565  A
O7           Zr9   2.451       .  S
O7           C13   1.294       .  A
O8           Zr9   2.441       .  S
O8           C12   1.293       .  A
Zr9          O10   2.343       .  S
Zr9          O11   2.349       .  S
Zr9          O19   2.344       .  S
Zr9          O17   2.337       .  S
O10         Zr36   2.347       .  S
O10         Zr39   2.328       .  S
O11         Zr37   2.358       .  S
O11         Zr38   2.336   1_545  S
C12        C2357   1.481       .  S
C13        C2206   1.498       .  S
C14        C2166   1.503       .  S
C15        C2257   1.490       .  S
H16          O17   0.963       .  S
O17         Zr36   2.341       .  S
O17         Zr38   2.330   1_545  S
H18          O19   0.964       .  S
O19         Zr37   2.338       .  S
O19         Zr39   2.327       .  S
O20         Zr36   2.465   1_565  S
O20          C43   1.297       .  A
O21         Zr37   2.461   1_565  S
O21          C44   1.296       .  A
O22         Zr38   2.424       .  S
O22          C45   1.290       .  A
O23         Zr39   2.417       .  S
O23          C46   1.287       .  A
O24         Zr39   2.406       .  S
O24          C47   1.285       .  A
O25         Zr38   2.438       .  S
O25          C48   1.293       .  A
O26         Zr40   2.441       .  S
O26          C49   1.293       .  A
O27         Zr40   2.456       .  S
O27          C50   1.295   1_565  A
O28         Zr38   2.455       .  S
O28          C49   1.296       .  A
O29         Zr39   2.409       .  S
O29          C50   1.283       .  A
O30         Zr36   2.415   1_565  S
O30          C45   1.287       .  A
O31         Zr37   2.433   1_565  S
O31          C48   1.291       .  A
O32         Zr37   2.447       .  S
O32          C47   1.293       .  A
O33         Zr36   2.440       .  S
O33          C46   1.292       .  A
O34         Zr40   2.431       .  S
O34          C43   1.290       .  A
O35         Zr40   2.426       .  S
O35          C44   1.289       .  A
Zr36         O42   2.338   1_545  S
Zr36         O54   2.326       .  S
Zr37         O41   2.333       .  S
Zr37         O52   2.336   1_545  S
Zr38         O42   2.350       .  S
Zr38         O52   2.353       .  S
Zr39         O41   2.333       .  S
Zr39         O54   2.342       .  S
Zr40         O41   2.337   1_565  S
Zr40         O42   2.340       .  S
Zr40         O54   2.343   1_565  S
Zr40         O52   2.352       .  S
C43        C2246   1.487       .  S
C44        C2317   1.477       .  S
C45        C2217   1.474       .  S
C46        C2177   1.462       .  S
C47        C2297   1.478       .  S
C48        C2346   1.483       .  S
C49        C2277   1.486       .  S
C50        C2137   1.493       .  S
H51          O52   0.967       .  S
H53          O54   0.965       .  S
C55        C2077   1.584       .  S
C55        C2106   1.613       .  S
C55        C2126   1.590       .  S
C55        C2197   1.622       .  S
O56         Zr92   2.458       .  S
O56          C67   1.295       .  A
O57         Zr91   2.455       .  S
O57          C68   1.296       .  A
O58         Zr64   2.495       .  S
O58          C69   1.303       .  A
O59         Zr64   2.472   1_565  S
O59          C70   1.298       .  A
O60         Zr94   2.444       .  S
O60          C70   1.293       .  A
O61         Zr93   2.369       .  S
O61          C69   1.278       .  A
O62         Zr64   2.411   1_565  S
O62          C68   1.287       .  A
O63         Zr64   2.434       .  S
O63          C67   1.291       .  A
Zr64         O65   2.355   1_545  S
Zr64         O66   2.334       .  S
Zr64         O74   2.336       .  S
Zr64         O72   2.337       .  S
O65         Zr91   2.327       .  S
O65         Zr94   2.329       .  S
O66         Zr92   2.331       .  S
O66         Zr93   2.340       .  S
C67        C2097   1.495       .  S
C68        C1897   1.473       .  S
C69        C1946   1.465       .  S
C70        C1926   1.507       .  S
H71          O72   0.962       .  S
O72         Zr91   2.341   1_545  S
O72         Zr93   2.345       .  S
H73          O74   0.969       .  S
O74         Zr92   2.350       .  S
O74         Zr94   2.365   1_545  S
O75         Zr91   2.417       .  S
O75          C98   1.288       .  A
O76         Zr92   2.438       .  S
O76          C99   1.291       .  A
O77         Zr93   2.448       .  S
O77         C100   1.293       .  A
O78         Zr94   2.495       .  S
O78         C101   1.304       .  A
O79         Zr94   2.434       .  S
O79         C102   1.291   1_565  A
O80         Zr93   2.433       .  S
O80         C103   1.288       .  A
O81         Zr95   2.452       .  S
O81         C104   1.294       .  A
O82         Zr95   2.436   1_565  S
O82         C105   1.290       .  A
O83         Zr93   2.415       .  S
O83         C104   1.286       .  A
O84         Zr94   2.440       .  S
O84         C105   1.289       .  A
O85         Zr91   2.428       .  S
O85         C100   1.289   1_565  A
O86         Zr92   2.458       .  S
O86         C103   1.295       .  A
O87         Zr92   2.449       .  S
O87         C102   1.294       .  A
O88         Zr91   2.436       .  S
O88         C101   1.290       .  A
O89         Zr95   2.470   1_565  S
O89          C98   1.299       .  A
O90         Zr95   2.462       .  S
O90          C99   1.297       .  A
Zr91         O97   2.350   1_565  S
Zr91        O109   2.339       .  S
Zr92         O96   2.346       .  S
Zr92        O107   2.349       .  S
Zr93         O97   2.327       .  S
Zr93        O107   2.335       .  S
Zr94         O96   2.346   1_565  S
Zr94        O109   2.331       .  S
Zr95         O96   2.344       .  S
Zr95         O97   2.346       .  S
Zr95        O109   2.337   1_545  S
Zr95        O107   2.337       .  S
C98        C2037   1.488       .  S
C99        C2006   1.503       .  S
C100       C1857   1.487       .  S
C101       C1977   1.506       .  S
C102       C1886   1.468       .  S
C103       C1957   1.505       .  S
C104       C2066   1.466       .  S
C105       C2017   1.509       .  S
H106        O107   0.966       .  S
H108        O109   0.964       .  S
C110       C1826   1.618   1_554  S
C110       C1837   1.611       .  S
C110       C2046   1.612       .  S
C110       C2326   1.608   1_554  S
C111       C1777   1.594       .  S
C111       C1797   1.620       .  S
C111       C2026   1.597       .  S
C111       C2337   1.612   1_554  S
C112       C1737   1.611       .  S
C112       C1766   1.618       .  S
C112       C1917   1.622       .  S
C112       C2226   1.601       .  S
C113       C1706   1.623       .  S
C113       C1726   1.625       .  S
C113       C2057   1.624   1_556  S
C113       C2306   1.604       .  S
C114       C1666   1.608       .  S
C114       C1677   1.605       .  S
C114       C1997   1.622   1_556  S
C114       C2366   1.608       .  S
C115       C1617   1.599       .  S
C115       C1646   1.617       .  S
C115       C1937   1.590       .  S
C115       C2186   1.603       .  S
C116       C1577   1.607       .  S
C116       C1597   1.601       .  S
C116       C1906   1.599       .  S
C116       C2237   1.612       .  S
O117       Zr153   2.431       .  S
O117        C128   1.291       .  A
O118       Zr152   2.443       .  S
O118        C129   1.291       .  A
O119       Zr125   2.406       .  S
O119        C130   1.285       .  A
O120       Zr125   2.429       .  S
O120        C131   1.288       .  A
O121       Zr155   2.441       .  S
O121        C131   1.290       .  A
O122       Zr154   2.456       .  S
O122        C130   1.295       .  A
O123       Zr125   2.464       .  S
O123        C129   1.297   1_655  A
O124       Zr125   2.457       .  S
O124        C128   1.296       .  A
Zr125       O126   2.332       .  S
Zr125       O127   2.352       .  S
Zr125       O135   2.333       .  S
Zr125       O133   2.334       .  S
O126       Zr152   2.343   1_655  S
O126       Zr155   2.342       .  S
O127       Zr153   2.342       .  S
O127       Zr154   2.337       .  S
C128       C1746   1.473       .  S
C129       C1397   1.505       .  S
C130       C1457   1.489       .  S
C131       C1537   1.498       .  S
H132        O133   0.969       .  S
O133       Zr152   2.338   1_655  S
O133       Zr154   2.334       .  S
H134        O135   0.961       .  S
O135       Zr153   2.350       .  S
O135       Zr155   2.329       .  S
O136       Zr152   2.450       .  S
O136        C159   1.294       .  A
O137       Zr153   2.463       .  S
O137        C160   1.296       .  A
O138       Zr154   2.435   1_455  S
O138        C161   1.291       .  A
O139       Zr155   2.458   1_455  S
O139        C162   1.296       .  A
O140       Zr155   2.439       .  S
O140        C163   1.292       .  A
O141       Zr154   2.454       .  S
O141        C164   1.294       .  A
O142       Zr156   2.428       .  S
O142        C165   1.290       .  A
O143       Zr156   2.446       .  S
O143        C166   1.293       .  A
O144       Zr154   2.430   1_455  S
O144        C165   1.290       .  A
O145       Zr155   2.440   1_455  S
O145        C166   1.292       .  A
O146       Zr152   2.428       .  S
O146        C161   1.290       .  A
O147       Zr153   2.470       .  S
O147        C164   1.297       .  A
O148       Zr153   2.437       .  S
O148        C163   1.290       .  A
O149       Zr152   2.396       .  S
O149        C162   1.284       .  A
O150       Zr156   2.455       .  S
O150        C159   1.294       .  A
O151       Zr156   2.426       .  S
O151        C160   1.290   1_455  A
Zr152       O158   2.329       .  S
Zr152       O170   2.342       .  S
Zr153       O157   2.348       .  S
Zr153       O168   2.334       .  S
Zr154       O158   2.355   1_655  S
Zr154       O168   2.337       .  S
Zr155       O157   2.347       .  S
Zr155       O170   2.334   1_655  S
Zr156       O157   2.338   1_455  S
Zr156       O158   2.342       .  S
Zr156       O170   2.330       .  S
Zr156       O168   2.352   1_455  S
C159       C1586   1.502       .  S
C160       C1386   1.476       .  S
C161       C1437   1.462       .  S
C162       C1557   1.460       .  S
C163       C1517   1.496       .  S
C164       C1477   1.515       .  S
C165       C1417   1.485       .  S
C166       C1497   1.495       .  S
H167        O168   0.965       .  S
H169        O170   0.969       .  S
O171       Zr207   2.433       .  S
O171        C182   1.290       .  A
O172       Zr206   2.468       .  S
O172        C183   1.298   1_455  A
O173       Zr179   2.446       .  S
O173        C184   1.292       .  A
O174       Zr179   2.444       .  S
O174        C185   1.293       .  A
O175       Zr209   2.409       .  S
O175        C185   1.286       .  A
O176       Zr208   2.483       .  S
O176        C184   1.300       .  A
O177       Zr179   2.426       .  S
O177        C183   1.289       .  A
O178       Zr179   2.417       .  S
O178        C182   1.286       .  A
Zr179       O180   2.331   1_655  S
Zr179       O181   2.343       .  S
Zr179       O189   2.336       .  S
Zr179       O187   2.341       .  S
O180       Zr206   2.337       .  S
O180       Zr209   2.336   1_455  S
O181       Zr207   2.344       .  S
O181       Zr208   2.330       .  S
C182       C2086   1.489       .  S
C183       C1206   1.494   1_655  S
C184       C1317   1.495       .  S
C185       C1237   1.467       .  S
H186        O187   0.967       .  S
O187       Zr206   2.340   1_655  S
O187       Zr208   2.353       .  S
H188        O189   0.964       .  S
O189       Zr207   2.345       .  S
O189       Zr209   2.345       .  S
O190       Zr206   2.446       .  S
O190        C213   1.293       .  A
O191       Zr207   2.465       .  S
O191        C214   1.296       .  A
O192       Zr208   2.419   1_455  S
O192        C215   1.288       .  A
O193       Zr209   2.462   1_455  S
O193        C216   1.297       .  A
O194       Zr209   2.472       .  S
O194        C217   1.299       .  A
O195       Zr208   2.436       .  S
O195        C218   1.291       .  A
O196       Zr210   2.432       .  S
O196        C219   1.289       .  A
O197       Zr210   2.432       .  S
O197        C220   1.291       .  A
O198       Zr208   2.454   1_455  S
O198        C219   1.295       .  A
O199       Zr209   2.415   1_455  S
O199        C220   1.288       .  A
O200       Zr206   2.439       .  S
O200        C215   1.293       .  A
O201       Zr207   2.436       .  S
O201        C218   1.292       .  A
O202       Zr207   2.436       .  S
O202        C217   1.291       .  A
O203       Zr206   2.436       .  S
O203        C216   1.290       .  A
O204       Zr210   2.434       .  S
O204        C213   1.291       .  A
O205       Zr210   2.442       .  S
O205        C214   1.292   1_455  A
Zr206       O212   2.337       .  S
Zr206       O224   2.344       .  S
Zr207       O211   2.341       .  S
Zr207       O222   2.330       .  S
Zr208       O212   2.339   1_655  S
Zr208       O222   2.354       .  S
Zr209       O211   2.335       .  S
Zr209       O224   2.345   1_655  S
Zr210       O211   2.333   1_455  S
Zr210       O212   2.340       .  S
Zr210       O224   2.339       .  S
Zr210       O222   2.337   1_455  S
C213       C1626   1.472       .  S
C214       C1177   1.512       .  S
C215       C1297   1.481       .  S
C216       C1257   1.505       .  S
C217       C1217   1.484       .  S
C218       C1346   1.490       .  S
C219       C1357   1.498       .  S
C220       C1277   1.460       .  S
H221        O222   0.964       .  S
H223        O224   0.959       .  S
C225       C1146   1.620       .  S
C225       C1157   1.621       .  S
C225       C1246   1.601       .  S
C225       C1466   1.602       .  S
C226       C1097   1.614       .  S
C226       C1117   1.612       .  S
C226       C1266   1.618       .  S
C226       C1446   1.597       .  S
C227       C1077   1.616       .  S
C227       C1337   1.608       .  S
C227       C1526   1.619   1_545  S
C227       C1877   1.607       .  S
C228       C1057   1.604       .  S
C228       C1326   1.615       .  S
C228       C1546   1.597   1_545  S
C228       C2157   1.632       .  S
C229       C1017   1.593       .  S
C229       C1037   1.615       .  S
C229       C1226   1.617       .  S
C229       C1486   1.638       .  S
C230        C986   1.591       .  S
C230       C1006   1.607       .  S
C230       C1286   1.591       .  S
C230       C1426   1.605       .  S
C231        C966   1.605       .  S
C231       C1366   1.609       .  S
C231       C1506   1.610   1_545  S
C231       C1866   1.605       .  S
C232        C946   1.608       .  S
C232       C1306   1.604       .  S
C232       C1566   1.596   1_545  S
C232       C2146   1.598       .  S
O233       Zr269   2.430       .  S
O233        C244   1.290       .  A
O234       Zr268   2.427       .  S
O234        C245   1.289       .  A
O235       Zr241   2.437       .  S
O235        C246   1.290       .  A
O236       Zr241   2.419       .  S
O236        C247   1.288       .  A
O237       Zr271   2.479   1_554  S
O237        C247   1.301       .  A
O238       Zr270   2.436   1_554  S
O238        C246   1.289       .  A
O239       Zr241   2.445       .  S
O239        C245   1.293       .  A
O240       Zr241   2.447       .  S
O240        C244   1.294   1_554  A
Zr241       O242   2.344       .  S
Zr241       O243   2.325   1_554  S
Zr241       O251   2.342   1_554  S
Zr241       O249   2.341       .  S
O242       Zr268   2.343       .  S
O242       Zr271   2.338   1_554  S
O243       Zr269   2.341       .  S
O243       Zr270   2.339       .  S
C244       C1786   1.484       .  S
C245       C1026   1.468       .  S
C246        C797   1.502       .  S
C247        C917   1.492       .  S
H248        O249   0.965       .  S
O249       Zr268   2.343       .  S
O249       Zr270   2.346   1_554  S
H250        O251   0.970       .  S
O251       Zr269   2.324       .  S
O251       Zr271   2.337       .  S
O252       Zr268   2.434       .  S
O252        C275   1.288   1_554  A
O253       Zr269   2.432       .  S
O253        C276   1.289       .  A
O254       Zr270   2.443   1_554  S
O254        C277   1.292       .  A
O255       Zr271   2.447   1_554  S
O255        C278   1.293       .  A
O256       Zr271   2.453       .  S
O256        C279   1.294       .  A
O257       Zr270   2.439       .  S
O257        C280   1.292       .  A
O258       Zr272   2.469       .  S
O258        C281   1.298       .  A
O259       Zr272   2.435       .  S
O259        C282   1.292       .  A
O260       Zr270   2.441       .  S
O260        C281   1.292       .  A
O261       Zr271   2.452       .  S
O261        C282   1.296       .  A
O262       Zr268   2.464       .  S
O262        C277   1.297       .  A
O263       Zr269   2.405       .  S
O263        C280   1.286       .  A
O264       Zr269   2.444       .  S
O264        C279   1.291       .  A
O265       Zr268   2.469       .  S
O265        C278   1.298       .  A
O266       Zr272   2.454       .  S
O266        C275   1.294       .  A
O267       Zr272   2.463       .  S
O267        C276   1.296       .  A
Zr268       O274   2.345   1_554  S
Zr268       O286   2.336   1_554  S
Zr269       O273   2.324       .  S
Zr269       O284   2.344       .  S
Zr270       O274   2.339       .  S
Zr270       O284   2.356       .  S
Zr271       O273   2.344       .  S
Zr271       O286   2.362       .  S
Zr272       O273   2.348       .  S
Zr272       O274   2.339       .  S
Zr272       O286   2.360       .  S
Zr272       O284   2.339       .  S
C275       C1657   1.512       .  S
C276       C1137   1.506       .  S
C277        C777   1.486       .  S
C278        C857   1.505       .  S
C279        C897   1.509       .  S
C280        C817   1.466       .  S
C281        C837   1.493       .  S
C282        C886   1.485       .  S
H283        O284   0.962       .  S
H285        O286   0.966       .  S
O287       Zr323   2.453       .  S
O287        C298   1.294   1_556  A
O288       Zr322   2.460       .  S
O288        C299   1.296       .  A
O289       Zr295   2.443       .  S
O289        C300   1.291       .  A
O290       Zr295   2.461       .  S
O290        C301   1.296       .  A
O291       Zr325   2.447       .  S
O291        C301   1.293       .  A
O292       Zr324   2.436       .  S
O292        C300   1.289       .  A
O293       Zr295   2.436       .  S
O293        C299   1.291       .  A
O294       Zr295   2.421       .  S
O294        C298   1.286       .  A
Zr295       O296   2.340       .  S
Zr295       O297   2.343       .  S
Zr295       O305   2.339       .  S
Zr295       O303   2.340       .  S
O296       Zr322   2.353       .  S
O296       Zr325   2.361       .  S
O297       Zr323   2.342   1_554  S
O297       Zr324   2.340       .  S
C298       C1817   1.502       .  S
C299        C977   1.478       .  S
C300        C666   1.508       .  S
C301        C737   1.488       .  S
H302        O303   0.967       .  S
O303       Zr322   2.330       .  S
O303       Zr324   2.332       .  S
H304        O305   0.963       .  S
O305       Zr323   2.341   1_554  S
O305       Zr325   2.328       .  S
O306       Zr322   2.449       .  S
O306        C329   1.291   1_554  A
O307       Zr323   2.477       .  S
O307        C330   1.300       .  A
O308       Zr324   2.484       .  S
O308        C331   1.300       .  A
O309       Zr325   2.446       .  S
O309        C332   1.294       .  A
O310       Zr325   2.473   1_556  S
O310        C333   1.297       .  A
O311       Zr324   2.491   1_556  S
O311        C334   1.302       .  A
O312       Zr326   2.434       .  S
O312        C335   1.293       .  A
O313       Zr326   2.458       .  S
O313        C336   1.296       .  A
O314       Zr324   2.405   1_556  S
O314        C335   1.286       .  A
O315       Zr325   2.441   1_556  S
O315        C336   1.292       .  A
O316       Zr322   2.446       .  S
O316        C331   1.293       .  A
O317       Zr323   2.399       .  S
O317        C334   1.285       .  A
O318       Zr323   2.411       .  S
O318        C333   1.284       .  A
O319       Zr322   2.405       .  S
O319        C332   1.285       .  A
O320       Zr326   2.464       .  S
O320        C329   1.295       .  A
O321       Zr326   2.436       .  S
O321        C330   1.290       .  A
Zr322       O328   2.329   1_554  S
Zr322       O340   2.347       .  S
Zr323       O327   2.335       .  S
Zr323       O338   2.335       .  S
Zr324       O328   2.355   1_554  S
Zr324       O338   2.345   1_554  S
Zr325       O327   2.349   1_554  S
Zr325       O340   2.342       .  S
Zr326       O327   2.346       .  S
Zr326       O328   2.351       .  S
Zr326       O340   2.321   1_556  S
Zr326       O338   2.351       .  S
C329       C1697   1.518       .  S
C330       C1106   1.507       .  S
C331        C637   1.513       .  S
C332        C766   1.474       .  S
C333        C717   1.513       .  S
C334        C677   1.484       .  S
C335        C626   1.456       .  S
C336        C697   1.497       .  S
H337        O338   0.961       .  S
H339        O340   0.964   1_556  S
C341        C597   1.609       .  S
C341        C686   1.618   1_655  S
C341        C906   1.587       .  S
C341       C1406   1.617       .  S
C342        C577   1.606       .  S
C342        C617   1.601   1_655  S
C342        C877   1.603       .  S
C342       C1197   1.605       .  S
C343        C566   1.619       .  S
C343        C726   1.614       .  S
C343        C826   1.612       .  S
C343       C2286   1.615       .  S
C344        C546   1.613       .  S
C344        C746   1.627       .  S
C344        C806   1.599       .  S
C344       C1986   1.620       .  S
C345        C517   1.602       .  S
C345        C646   1.635   1_655  S
C345        C866   1.623       .  S
C345       C1186   1.605       .  S
C346        C497   1.608       .  S
C346        C657   1.612   1_655  S
C346        C926   1.613       .  S
C346       C1377   1.599       .  S
C347        C486   1.586       .  S
C347        C706   1.620       .  S
C347        C846   1.612       .  S
C347       C2266   1.607       .  S
C348        C466   1.617       .  S
C348        C757   1.597       .  S
C348        C786   1.619       .  S
C348       C1966   1.610       .  S
O349       Zr385   2.500       .  S
O349        C360   1.303       .  A
O350       Zr384   2.483       .  S
O350        C361   1.299       .  A
O351       Zr357   2.479       .  S
O351        C362   1.299       .  A
O352       Zr357   2.512       .  S
O352        C363   1.307       .  A
O353       Zr387   2.393       .  S
O353        C363   1.283       .  A
O354       Zr386   2.381       .  S
O354        C362   1.279       .  A
O355       Zr357   2.413       .  S
O355        C361   1.288       .  A
O356       Zr357   2.375       .  S
O356        C360   1.277       .  A
Zr357       O358   2.335       .  S
Zr357       O359   2.339       .  S
Zr357       O367   2.339       .  S
Zr357       O365   2.338       .  S
O358       Zr384   2.343       .  S
O358       Zr387   2.350       .  S
O359       Zr385   2.324       .  S
O359       Zr386   2.322       .  S
C360       C2117   1.500       .  S
C361        C457   1.490       .  S
C362       C1637   1.489       .  S
C363       C1046   1.489       .  S
H364        O365   0.966       .  S
O365       Zr384   2.340       .  S
O365       Zr386   2.345       .  S
H366        O367   0.962       .  S
O367       Zr385   2.334       .  S
O367       Zr387   2.340       .  S
O368       Zr384   2.473       .  S
O368        C391   1.297       .  A
O369       Zr385   2.514       .  S
O369        C392   1.306       .  A
O370       Zr386   2.479       .  S
O370        C393   1.298       .  A
O371       Zr387   2.453       .  S
O371        C394   1.294       .  A
O372       Zr387   2.467       .  S
O372        C395   1.296       .  A
O373       Zr386   2.485       .  S
O373        C396   1.297       .  A
O374       Zr388   2.493       .  S
O374        C397   1.301       .  A
O375       Zr388   2.452       .  S
O375        C398   1.294       .  A
O376       Zr386   2.385       .  S
O376        C397   1.280       .  A
O377       Zr387   2.406       .  S
O377        C398   1.286       .  A
O378       Zr384   2.388       .  S
O378        C393   1.282       .  A
O379       Zr385   2.394       .  S
O379        C396   1.276       .  A
O380       Zr385   2.410       .  S
O380        C395   1.287       .  A
O381       Zr384   2.412       .  S
O381        C394   1.288       .  A
O382       Zr388   2.398       .  S
O382        C391   1.285       .  A
O383       Zr388   2.406       .  S
O383        C392   1.286       .  A
Zr384       O390   2.346       .  S
Zr384       O402   2.346       .  S
Zr385       O389   2.345       .  S
Zr385       O400   2.342       .  S
Zr386       O390   2.333       .  S
Zr386       O400   2.320       .  S
Zr387       O389   2.338       .  S
Zr387       O402   2.341       .  S
Zr388       O389   2.349       .  S
Zr388       O390   2.325       .  S
Zr388       O402   2.348       .  S
Zr388       O400   2.324       .  S
C391       C1606   1.492       .  S
C392        C557   1.487       .  S
C393        C997   1.470       .  S
C394        C537   1.467       .  S
C395       C1166   1.490       .  S
C396        C477   1.505       .  S
C397       C1126   1.492       .  S
C398       C1757   1.469       .  S
H399        O400   0.967       .  S
H401        O402   0.966       .  S
O403       Zr439   2.480       .  S
O403        C414   1.299       .  A
O404       Zr438   2.475   1_455  S
O404        C415   1.299       .  A
O405       Zr411   2.491       .  S
O405        C416   1.301       .  A
O406       Zr411   2.500   1_545  S
O406        C417   1.302       .  A
O407       Zr441   2.403   1_556  S
O407        C417   1.283       .  A
O408       Zr440   2.397       .  S
O408        C416   1.280   1_655  A
O409       Zr411   2.401   1_545  S
O409        C415   1.286       .  A
O410       Zr411   2.426       .  S
O410        C414   1.290   1_556  A
Zr411       O412   2.352   1_565  S
Zr411       O413   2.340       .  S
Zr411       O421   2.334   1_566  S
Zr411       O419   2.361   1_455  S
O412       Zr438   2.348   1_455  S
O412       Zr441   2.335   1_556  S
O413       Zr439   2.324   1_556  S
O413       Zr440   2.343   1_455  S
C414       C1846   1.486       .  S
C415        C937   1.468       .  S
C416        C606   1.509       .  S
C417       C1717   1.514       .  S
H418        O419   0.965       .  S
O419       Zr438   2.343   1_565  S
O419       Zr440   2.338       .  S
H420        O421   0.974       .  S
O421       Zr439   2.340   1_545  S
O421       Zr441   2.327       .  S
O422       Zr438   2.480       .  S
O422        C445   1.299       .  A
O423       Zr439   2.441   1_655  S
O423        C446   1.292       .  A
O424       Zr440   2.442       .  S
O424        C447   1.291       .  A
O425       Zr441   2.462   1_556  S
O425        C448   1.294       .  A
O426       Zr441   2.470       .  S
O426        C449   1.297       .  A
O427       Zr440   2.438   1_554  S
O427        C450   1.289       .  A
O428       Zr442   2.473       .  S
O428        C451   1.297   1_545  A
O429       Zr442   2.490       .  S
O429        C452   1.301       .  A
O430       Zr440   2.422       .  S
O430        C451   1.289   1_556  A
O431       Zr441   2.406       .  S
O431        C452   1.284   1_455  A
O432       Zr438   2.420       .  S
O432        C447   1.288   1_545  A
O433       Zr439   2.450   1_655  S
O433        C450   1.294       .  A
O434       Zr439   2.403       .  S
O434        C449   1.285   1_565  A
O435       Zr438   2.403       .  S
O435        C448   1.285   1_655  A
O436       Zr442   2.430       .  S
O436        C445   1.291   1_554  A
O437       Zr442   2.433       .  S
O437        C446   1.292   1_545  A
Zr438       O444   2.339       .  S
Zr438       O456   2.340       .  S
Zr439       O443   2.351   1_465  S
Zr439       O454   2.351   1_455  S
Zr440       O444   2.329   1_565  S
Zr440       O454   2.337   1_556  S
Zr441       O443   2.334   1_455  S
Zr441       O456   2.325   1_454  S
Zr442       O443   2.337       .  S
Zr442       O444   2.346   1_554  S
Zr442       O456   2.337   1_554  S
Zr442       O454   2.360   1_545  S
C445       C1686   1.504       .  S
C446       C1086   1.466       .  S
C447       C1066   1.475       .  S
C448        C586   1.470       .  S
C449        C957   1.485       .  S
C450        C506   1.480       .  S
C451       C1806   1.499       .  S
C452        C526   1.500       .  S
H453        O454   0.963       .  S
H455        O456   0.964       .  S
C457        C458   1.416       .  A
C457        C462   1.407       .  A
C458        C459   1.403       .  A
C458       Br470   1.922       .  S
C459        C460   1.407       .  A
C459       Br474   1.936       .  S
C460        C463   1.490       .  S
C460        C461   1.415       .  A
C461        C462   1.410       .  A
C461       Br469   1.929       .  S
C462       Br473   1.926       .  S
C463        C464   1.398       .  A
C463        C468   1.391       .  A
C464        C465   1.415       .  A
C464       Br475   1.939       .  S
C465        C466   1.449       .  A
C465       Br471   1.939       .  S
C466        C467   1.471       .  A
C467        C468   1.416       .  A
C467       Br476   1.942       .  S
C468       Br472   1.958       .  S
C477        C478   1.437       .  A
C477        C482   1.422       .  A
C478        C479   1.401       .  A
C478       Br490   1.946       .  S
C479        C480   1.401       .  A
C479       Br494   1.941       .  S
C480        C483   1.486       .  S
C480        C481   1.409       .  A
C481        C482   1.414       .  A
C481       Br489   1.930       .  S
C482       Br493   1.933       .  S
C483        C484   1.397       .  A
C483        C488   1.405       .  A
C484        C485   1.405       .  A
C484       Br495   1.943       .  S
C485        C486   1.444       .  A
C485       Br491   1.935       .  S
C486        C487   1.448       .  A
C487        C488   1.415       .  A
C487       Br496   1.950       .  S
C488       Br492   1.932       .  S
C497        C498   1.453       .  A
C497        C502   1.457       .  A
C498        C499   1.409       .  A
C498       Br510   1.939       .  S
C499        C500   1.397       .  A
C499       Br514   1.940   1_655  S
C500        C503   1.491       .  S
C500        C501   1.397       .  A
C501        C502   1.415       .  A
C501       Br509   1.935       .  S
C502       Br513   1.942       .  S
C503        C504   1.412       .  A
C503        C508   1.410   1_655  A
C504        C505   1.409       .  A
C504       Br515   1.928       .  S
C505        C506   1.405       .  A
C505       Br511   1.923       .  S
C506        C507   1.406       .  A
C507        C508   1.408   1_655  A
C507       Br516   1.923   1_654  S
C508       Br512   1.927       .  S
C517        C518   1.445   1_655  A
C517        C522   1.453       .  A
C518        C519   1.414       .  A
C518       Br530   1.919       .  S
C519        C520   1.397   1_455  A
C519       Br534   1.941       .  S
C520        C523   1.489       .  S
C520        C521   1.395       .  A
C521        C522   1.413       .  A
C521       Br529   1.938       .  S
C522       Br533   1.936       .  S
C523        C524   1.398       .  A
C523        C528   1.411       .  A
C524        C525   1.400       .  A
C524       Br535   1.934   1_655  S
C525        C526   1.427       .  A
C525       Br531   1.927   1_655  S
C526        C527   1.418       .  A
C527        C528   1.417       .  A
C527       Br536   1.930       .  S
C528       Br532   1.928       .  S
C537        C538   1.407       .  A
C537        C542   1.405       .  A
C538        C539   1.410       .  A
C538       Br550   1.927       .  S
C539        C540   1.414       .  A
C539       Br554   1.928       .  S
C540        C543   1.487       .  S
C540        C541   1.411       .  A
C541        C542   1.399       .  A
C541       Br549   1.933       .  S
C542       Br553   1.930       .  S
C543        C544   1.395       .  A
C543        C548   1.391       .  A
C544        C545   1.415       .  A
C544       Br555   1.939       .  S
C545        C546   1.450       .  A
C545       Br551   1.938       .  S
C546        C547   1.472       .  A
C547        C548   1.414       .  A
C547       Br556   1.959       .  S
C548       Br552   1.953       .  S
C557        C558   1.414       .  A
C557        C562   1.411       .  A
C558        C559   1.415       .  A
C558       Br570   1.922       .  S
C559        C560   1.409       .  A
C559       Br574   1.928       .  S
C560        C563   1.492       .  S
C560        C561   1.406       .  A
C561        C562   1.406       .  A
C561       Br569   1.933       .  S
C562       Br573   1.918       .  S
C563        C564   1.403       .  A
C563        C568   1.389       .  A
C564        C565   1.423       .  A
C564       Br575   1.937       .  S
C565        C566   1.453       .  A
C565       Br571   1.932       .  S
C566        C567   1.453       .  A
C567        C568   1.404       .  A
C567       Br576   1.931       .  S
C568       Br572   1.940       .  S
C577        C578   1.452       .  A
C577        C582   1.451   1_655  A
C578        C579   1.417       .  A
C578       Br590   1.934       .  S
C579        C580   1.401   1_655  A
C579       Br594   1.934       .  S
C580        C583   1.478       .  S
C580        C581   1.388       .  A
C581        C582   1.395       .  A
C581       Br589   1.940       .  S
C582       Br593   1.935       .  S
C583        C584   1.405   1_455  A
C583        C588   1.414       .  A
C584        C585   1.400       .  A
C584       Br595   1.930       .  S
C585        C586   1.409   1_655  A
C585       Br591   1.919       .  S
C586        C587   1.403       .  A
C587        C588   1.407       .  A
C587       Br596   1.923       .  S
C588       Br592   1.930       .  S
C597        C598   1.448       .  A
C597        C602   1.446   1_655  A
C598        C599   1.416   1_655  A
C598       Br610   1.917       .  S
C599        C600   1.397       .  A
C599       Br614   1.944   1_455  S
C600        C603   1.491       .  S
C600        C601   1.396       .  A
C601        C602   1.413       .  A
C601       Br609   1.939       .  S
C602       Br613   1.916       .  S
C603        C604   1.407       .  A
C603        C608   1.403   1_455  A
C604        C605   1.416       .  A
C604       Br615   1.928       .  S
C605        C606   1.423       .  A
C605       Br611   1.932       .  S
C606        C607   1.436   1_455  A
C607        C608   1.404       .  A
C607       Br616   1.944       .  S
C608       Br612   1.940       .  S
C617        C618   1.458       .  A
C617        C622   1.457       .  A
C618        C619   1.402       .  A
C618       Br630   1.941   1_455  S
C619        C620   1.389       .  A
C619       Br634   1.945       .  S
C620        C623   1.475       .  S
C620        C621   1.396       .  A
C621        C622   1.416       .  A
C621       Br629   1.943       .  S
C622       Br633   1.942       .  S
C623        C624   1.409       .  A
C623        C628   1.410       .  A
C624        C625   1.403       .  A
C624       Br635   1.929       .  S
C625        C626   1.409       .  A
C625       Br631   1.931       .  S
C626        C627   1.402       .  A
C627        C628   1.395       .  A
C627       Br636   1.933       .  S
C628       Br632   1.920       .  S
C637        C638   1.421       .  A
C637        C642   1.423       .  A
C638        C639   1.419       .  A
C638       Br650   1.924       .  S
C639        C640   1.409       .  A
C639       Br654   1.929       .  S
C640        C643   1.504       .  S
C640        C641   1.409       .  A
C641        C642   1.413       .  A
C641       Br649   1.934       .  S
C642       Br653   1.932       .  S
C643        C644   1.407       .  A
C643        C648   1.399       .  A
C644        C645   1.428       .  A
C644       Br655   1.937       .  S
C645        C646   1.452       .  A
C645       Br651   1.940       .  S
C646        C647   1.424       .  A
C647        C648   1.407       .  A
C647       Br656   1.924       .  S
C648       Br652   1.931       .  S
C657        C658   1.449       .  A
C657        C662   1.446       .  A
C658        C659   1.406       .  A
C658       Br670   1.947       .  S
C659        C660   1.396       .  A
C659       Br674   1.939       .  S
C660        C663   1.486       .  S
C660        C661   1.402       .  A
C661        C662   1.417       .  A
C661       Br669   1.939       .  S
C662       Br673   1.948       .  S
C663        C664   1.405       .  A
C663        C668   1.404       .  A
C664        C665   1.410       .  A
C664       Br675   1.938       .  S
C665        C666   1.432       .  A
C665       Br671   1.939       .  S
C666        C667   1.429       .  A
C667        C668   1.407       .  A
C667       Br676   1.940       .  S
C668       Br672   1.936       .  S
C677        C678   1.416       .  A
C677        C682   1.408       .  A
C678        C679   1.404       .  A
C678       Br690   1.914       .  S
C679        C680   1.401       .  A
C679       Br694   1.932       .  S
C680        C683   1.483       .  S
C680        C681   1.414       .  A
C681        C682   1.409       .  A
C681       Br689   1.929       .  S
C682       Br693   1.924       .  S
C683        C684   1.399       .  A
C683        C688   1.385       .  A
C684        C685   1.422       .  A
C684       Br695   1.934       .  S
C685        C686   1.457       .  A
C685       Br691   1.946       .  S
C686        C687   1.455       .  A
C687        C688   1.394       .  A
C687       Br696   1.939   1_455  S
C688       Br692   1.944       .  S
C697        C698   1.414       .  A
C697        C702   1.420       .  A
C698        C699   1.404       .  A
C698       Br710   1.919       .  S
C699        C700   1.406       .  A
C699       Br714   1.935       .  S
C700        C703   1.487       .  S
C700        C701   1.407       .  A
C701        C702   1.413       .  A
C701       Br709   1.931       .  S
C702       Br713   1.925       .  S
C703        C704   1.400       .  A
C703        C708   1.402       .  A
C704        C705   1.402       .  A
C704       Br715   1.928       .  S
C705        C706   1.420       .  A
C705       Br711   1.934       .  S
C706        C707   1.459       .  A
C707        C708   1.419       .  A
C707       Br716   1.950       .  S
C708       Br712   1.941       .  S
C717        C718   1.432       .  A
C717        C722   1.425       .  A
C718        C719   1.407       .  A
C718       Br730   1.939       .  S
C719        C720   1.403       .  A
C719       Br734   1.937       .  S
C720        C723   1.490       .  S
C720        C721   1.407       .  A
C721        C722   1.412       .  A
C721       Br729   1.932       .  S
C722       Br733   1.935       .  S
C723        C724   1.394       .  A
C723        C728   1.392       .  A
C724        C725   1.419       .  A
C724       Br735   1.945       .  S
C725        C726   1.457       .  A
C725       Br731   1.928       .  S
C726        C727   1.457       .  A
C727        C728   1.413       .  A
C727       Br736   1.930       .  S
C728       Br732   1.942       .  S
C737        C738   1.408       .  A
C737        C742   1.410       .  A
C738        C739   1.410       .  A
C738       Br750   1.927       .  S
C739        C740   1.415       .  A
C739       Br754   1.930       .  S
C740        C743   1.506       .  S
C740        C741   1.417       .  A
C741        C742   1.415       .  A
C741       Br749   1.930       .  S
C742       Br753   1.930       .  S
C743        C744   1.396       .  A
C743        C748   1.400       .  A
C744        C745   1.411       .  A
C744       Br755   1.938       .  S
C745        C746   1.457       .  A
C745       Br751   1.933       .  S
C746        C747   1.463       .  A
C747        C748   1.423       .  A
C747       Br756   1.939       .  S
C748       Br752   1.938       .  S
C757        C758   1.453       .  A
C757        C762   1.459       .  A
C758        C759   1.406       .  A
C758       Br770   1.938       .  S
C759        C760   1.396       .  A
C759       Br774   1.947       .  S
C760        C763   1.477       .  S
C760        C761   1.394       .  A
C761        C762   1.415       .  A
C761       Br769   1.945       .  S
C762       Br773   1.940       .  S
C763        C764   1.406       .  A
C763        C768   1.406       .  A
C764        C765   1.398       .  A
C764       Br775   1.930       .  S
C765        C766   1.417       .  A
C765       Br771   1.937       .  S
C766        C767   1.415       .  A
C767        C768   1.404       .  A
C767       Br776   1.931       .  S
C768       Br772   1.930       .  S
C777        C778   1.411       .  A
C777        C782   1.407       .  A
C778        C779   1.409       .  A
C778       Br790   1.924       .  S
C779        C780   1.414       .  A
C779       Br794   1.932       .  S
C780        C783   1.498       .  S
C780        C781   1.414       .  A
C781        C782   1.409       .  A
C781       Br789   1.929       .  S
C782       Br793   1.922       .  S
C783        C784   1.400       .  A
C783        C788   1.396       .  A
C784        C785   1.418       .  A
C784       Br795   1.939       .  S
C785        C786   1.460       .  A
C785       Br791   1.938       .  S
C786        C787   1.456       .  A
C787        C788   1.408       .  A
C787       Br796   1.931       .  S
C788       Br792   1.939       .  S
C797        C798   1.428       .  A
C797        C802   1.428       .  A
C798        C799   1.406       .  A
C798       Br810   1.939       .  S
C799        C800   1.404       .  A
C799       Br814   1.935       .  S
C800        C803   1.486       .  S
C800        C801   1.405       .  A
C801        C802   1.408       .  A
C801       Br809   1.935       .  S
C802       Br813   1.938       .  S
C803        C804   1.393       .  A
C803        C808   1.399       .  A
C804        C805   1.407       .  A
C804       Br815   1.946       .  S
C805        C806   1.456       .  A
C805       Br811   1.937       .  S
C806        C807   1.457       .  A
C807        C808   1.418       .  A
C807       Br816   1.947       .  S
C808       Br812   1.944       .  S
C817        C818   1.411       .  A
C817        C822   1.408       .  A
C818        C819   1.406       .  A
C818       Br830   1.923       .  S
C819        C820   1.407       .  A
C819       Br834   1.928       .  S
C820        C823   1.480       .  S
C820        C821   1.408       .  A
C821        C822   1.396       .  A
C821       Br829   1.917       .  S
C822       Br833   1.939       .  S
C823        C824   1.390       .  A
C823        C828   1.392       .  A
C824        C825   1.406       .  A
C824       Br835   1.949       .  S
C825        C826   1.461       .  A
C825       Br831   1.942       .  S
C826        C827   1.461       .  A
C827        C828   1.420       .  A
C827       Br836   1.934       .  S
C828       Br832   1.944       .  S
C837        C838   1.417       .  A
C837        C842   1.412       .  A
C838        C839   1.413       .  A
C838       Br850   1.928       .  S
C839        C840   1.409       .  A
C839       Br854   1.931       .  S
C840        C843   1.498       .  S
C840        C841   1.414       .  A
C841        C842   1.411       .  A
C841       Br849   1.931       .  S
C842       Br853   1.930       .  S
C843        C844   1.399       .  A
C843        C848   1.402       .  A
C844        C845   1.408       .  A
C844       Br855   1.934       .  S
C845        C846   1.438       .  A
C845       Br851   1.930       .  S
C846        C847   1.456       .  A
C847        C848   1.419       .  A
C847       Br856   1.941       .  S
C848       Br852   1.939       .  S
C857        C858   1.424       .  A
C857        C862   1.417       .  A
C858        C859   1.418       .  A
C858       Br870   1.932       .  S
C859        C860   1.409       .  A
C859       Br874   1.929       .  S
C860        C863   1.505       .  S
C860        C861   1.412       .  A
C861        C862   1.411       .  A
C861       Br869   1.929       .  S
C862       Br873   1.934       .  S
C863        C864   1.395       .  A
C863        C868   1.402       .  A
C864        C865   1.411       .  A
C864       Br875   1.939       .  S
C865        C866   1.449       .  A
C865       Br871   1.935       .  S
C866        C867   1.457       .  A
C867        C868   1.425       .  A
C867       Br876   1.942       .  S
C868       Br872   1.938       .  S
C877        C878   1.455       .  A
C877        C882   1.455       .  A
C878        C879   1.406       .  A
C878       Br890   1.931       .  S
C879        C880   1.391       .  A
C879       Br894   1.939       .  S
C880        C883   1.484       .  S
C880        C881   1.396       .  A
C881        C882   1.416       .  A
C881       Br889   1.940       .  S
C882       Br893   1.931       .  S
C883        C884   1.407       .  A
C883        C888   1.407       .  A
C884        C885   1.405       .  A
C884       Br895   1.931       .  S
C885        C886   1.415       .  A
C885       Br891   1.932       .  S
C886        C887   1.418       .  A
C887        C888   1.409       .  A
C887       Br896   1.930       .  S
C888       Br892   1.931       .  S
C897        C898   1.423       .  A
C897        C902   1.423       .  A
C898        C899   1.415       .  A
C898       Br910   1.938       .  S
C899        C900   1.416       .  A
C899       Br914   1.928       .  S
C900        C903   1.508       .  S
C900        C901   1.409       .  A
C901        C902   1.410       .  A
C901       Br909   1.934       .  S
C902       Br913   1.935       .  S
C903        C904   1.410       .  A
C903        C908   1.409       .  A
C904        C905   1.410       .  A
C904       Br915   1.936       .  S
C905        C906   1.435       .  A
C905       Br911   1.931       .  S
C906        C907   1.452       .  A
C907        C908   1.422       .  A
C907       Br916   1.943       .  S
C908       Br912   1.933       .  S
C917        C918   1.420       .  A
C917        C922   1.415       .  A
C918        C919   1.407       .  A
C918       Br930   1.932       .  S
C919        C920   1.409       .  A
C919       Br934   1.934       .  S
C920        C923   1.492       .  S
C920        C921   1.408       .  A
C921        C922   1.411       .  A
C921       Br929   1.927       .  S
C922       Br933   1.930   1_554  S
C923        C924   1.398       .  A
C923        C928   1.397       .  A
C924        C925   1.411       .  A
C924       Br935   1.935       .  S
C925        C926   1.445       .  A
C925       Br931   1.928       .  S
C926        C927   1.450       .  A
C927        C928   1.417       .  A
C927       Br936   1.920       .  S
C928       Br932   1.943       .  S
C937        C938   1.408       .  A
C937        C942   1.407       .  A
C938        C939   1.405       .  A
C938       Br950   1.925       .  S
C939        C940   1.409       .  A
C939       Br954   1.930       .  S
C940        C943   1.483       .  S
C940        C941   1.409   1_545  A
C941        C942   1.406   1_565  A
C941       Br949   1.927       .  S
C942       Br953   1.925   1_445  S
C943        C944   1.391       .  A
C943        C948   1.397   1_545  A
C944        C945   1.408       .  A
C944       Br955   1.946       .  S
C945        C946   1.459       .  A
C945       Br951   1.942       .  S
C946        C947   1.452   1_545  A
C947        C948   1.416       .  A
C947       Br956   1.938       .  S
C948       Br952   1.938       .  S
C957        C958   1.415       .  A
C957        C962   1.420       .  A
C958        C959   1.410       .  A
C958       Br970   1.932       .  S
C959        C960   1.409       .  A
C959       Br974   1.928       .  S
C960        C963   1.479       .  S
C960        C961   1.402       .  A
C961        C962   1.400       .  A
C961       Br969   1.937   1_545  S
C962       Br973   1.926   1_545  S
C963        C964   1.391       .  A
C963        C968   1.396       .  A
C964        C965   1.406       .  A
C964       Br975   1.938       .  S
C965        C966   1.458       .  A
C965       Br971   1.932       .  S
C966        C967   1.456       .  A
C967        C968   1.409       .  A
C967       Br976   1.947   1_545  S
C968       Br972   1.939   1_545  S
C977        C978   1.408       .  A
C977        C982   1.410       .  A
C978        C979   1.411       .  A
C978       Br990   1.923       .  S
C979        C980   1.412       .  A
C979       Br994   1.926       .  S
C980        C983   1.490       .  S
C980        C981   1.410       .  A
C981        C982   1.405       .  A
C981       Br989   1.932       .  S
C982       Br993   1.927       .  S
C983        C984   1.397       .  A
C983        C988   1.402       .  A
C984        C985   1.407       .  A
C984       Br995   1.938       .  S
C985        C986   1.448       .  A
C985       Br991   1.942       .  S
C986        C987   1.447       .  A
C987        C988   1.417       .  A
C987       Br996   1.929       .  S
C988       Br992   1.935       .  S
C997        C998   1.413       .  A
C997       C1002   1.408       .  A
C998        C999   1.403       .  A
C998      Br1010   1.930       .  S
C999       C1000   1.406       .  A
C999      Br1014   1.930       .  S
C1000      C1003   1.480       .  S
C1000      C1001   1.410       .  A
C1001      C1002   1.405       .  A
C1001     Br1009   1.931       .  S
C1002     Br1013   1.926       .  S
C1003      C1004   1.392       .  A
C1003      C1008   1.394       .  A
C1004      C1005   1.412       .  A
C1004     Br1015   1.941       .  S
C1005      C1006   1.462       .  A
C1005     Br1011   1.942       .  S
C1006      C1007   1.451       .  A
C1007      C1008   1.405       .  A
C1007     Br1016   1.938       .  S
C1008     Br1012   1.941       .  S
C1017      C1018   1.451       .  A
C1017      C1022   1.451       .  A
C1018      C1019   1.421       .  A
C1018     Br1030   1.934       .  S
C1019      C1020   1.406       .  A
C1019     Br1034   1.938       .  S
C1020      C1023   1.492       .  S
C1020      C1021   1.392       .  A
C1021      C1022   1.408       .  A
C1021     Br1029   1.941       .  S
C1022     Br1033   1.914       .  S
C1023      C1024   1.408       .  A
C1023      C1028   1.420       .  A
C1024      C1025   1.402       .  A
C1024     Br1035   1.931       .  S
C1025      C1026   1.405       .  A
C1025     Br1031   1.921       .  S
C1026      C1027   1.403       .  A
C1027      C1028   1.409       .  A
C1027     Br1036   1.930       .  S
C1028     Br1032   1.925       .  S
C1037      C1038   1.445       .  A
C1037      C1042   1.466       .  A
C1038      C1039   1.419       .  A
C1038     Br1050   1.939       .  S
C1039      C1040   1.402       .  A
C1039     Br1054   1.932       .  S
C1040      C1043   1.499       .  S
C1040      C1041   1.394       .  A
C1041      C1042   1.416       .  A
C1041     Br1049   1.953       .  S
C1042     Br1053   1.943       .  S
C1043      C1044   1.411       .  A
C1043      C1048   1.414       .  A
C1044      C1045   1.410       .  A
C1044     Br1055   1.929       .  S
C1045      C1046   1.412       .  A
C1045     Br1051   1.925       .  S
C1046      C1047   1.417       .  A
C1047      C1048   1.410       .  A
C1047     Br1056   1.929       .  S
C1048     Br1052   1.936       .  S
C1057      C1058   1.452       .  A
C1057      C1062   1.449   1_545  A
C1058      C1059   1.417       .  A
C1058     Br1070   1.943       .  S
C1059      C1060   1.401       .  A
C1059     Br1074   1.941       .  S
C1060      C1063   1.487   1_545  S
C1060      C1061   1.389   1_545  A
C1061      C1062   1.403       .  A
C1061     Br1069   1.938       .  S
C1062     Br1073   1.935       .  S
C1063      C1064   1.417       .  A
C1063      C1068   1.405   1_565  A
C1064      C1065   1.407       .  A
C1064     Br1075   1.928       .  S
C1065      C1066   1.406       .  A
C1065     Br1071   1.931       .  S
C1066      C1067   1.409   1_565  A
C1067      C1068   1.405       .  A
C1067     Br1076   1.924       .  S
C1068     Br1072   1.927       .  S
C1077      C1078   1.458       .  A
C1077      C1082   1.456   1_545  A
C1078      C1079   1.414       .  A
C1078     Br1090   1.931       .  S
C1079      C1080   1.395       .  A
C1079     Br1094   1.947       .  S
C1080      C1083   1.477   1_545  S
C1080      C1081   1.389   1_545  A
C1081      C1082   1.406       .  A
C1081     Br1089   1.940       .  S
C1082     Br1093   1.942       .  S
C1083      C1084   1.409       .  A
C1083      C1088   1.407   1_565  A
C1084      C1085   1.402       .  A
C1084     Br1095   1.932       .  S
C1085      C1086   1.404       .  A
C1085     Br1091   1.922       .  S
C1086      C1087   1.408   1_565  A
C1087      C1088   1.405       .  A
C1087     Br1096   1.923       .  S
C1088     Br1092   1.928       .  S
C1097      C1098   1.455       .  A
C1097      C1102   1.440       .  A
C1098      C1099   1.428       .  A
C1098     Br1110   1.925       .  S
C1099      C1100   1.406       .  A
C1099     Br1114   1.934       .  S
C1100      C1103   1.493       .  S
C1100      C1101   1.393       .  A
C1101      C1102   1.393       .  A
C1101     Br1109   1.930       .  S
C1102     Br1113   1.935       .  S
C1103      C1104   1.410       .  A
C1103      C1108   1.404       .  A
C1104      C1105   1.411       .  A
C1104     Br1115   1.931       .  S
C1105      C1106   1.418       .  A
C1105     Br1111   1.929       .  S
C1106      C1107   1.427       .  A
C1107      C1108   1.413       .  A
C1107     Br1116   1.929       .  S
C1108     Br1112   1.932       .  S
C1117      C1118   1.453       .  A
C1117      C1122   1.456       .  A
C1118      C1119   1.414       .  A
C1118     Br1130   1.936       .  S
C1119      C1120   1.399       .  A
C1119     Br1134   1.942       .  S
C1120      C1123   1.484       .  S
C1120      C1121   1.393       .  A
C1121      C1122   1.414       .  A
C1121     Br1129   1.945       .  S
C1122     Br1133   1.930       .  S
C1123      C1124   1.411       .  A
C1123      C1128   1.400       .  A
C1124      C1125   1.416       .  A
C1124     Br1135   1.926       .  S
C1125      C1126   1.416       .  A
C1125     Br1131   1.929       .  S
C1126      C1127   1.424       .  A
C1127      C1128   1.396       .  A
C1127     Br1136   1.926       .  S
C1128     Br1132   1.943       .  S
C1137      C1138   1.428       .  A
C1137      C1142   1.421       .  A
C1138      C1139   1.408       .  A
C1138     Br1150   1.929       .  S
C1139      C1140   1.402       .  A
C1139     Br1154   1.933       .  S
C1140      C1143   1.491       .  S
C1140      C1141   1.408       .  A
C1141      C1142   1.412       .  A
C1141     Br1149   1.931       .  S
C1142     Br1153   1.933       .  S
C1143      C1144   1.392       .  A
C1143      C1148   1.398       .  A
C1144      C1145   1.407       .  A
C1144     Br1155   1.936       .  S
C1145      C1146   1.451       .  A
C1145     Br1151   1.936       .  S
C1146      C1147   1.457       .  A
C1147      C1148   1.420       .  A
C1147     Br1156   1.926       .  S
C1148     Br1152   1.944       .  S
C1157      C1158   1.460       .  A
C1157      C1162   1.456       .  A
C1158      C1159   1.425       .  A
C1158     Br1170   1.928       .  S
C1159      C1160   1.400       .  A
C1159     Br1174   1.943       .  S
C1160      C1163   1.495       .  S
C1160      C1161   1.389       .  A
C1161      C1162   1.408       .  A
C1161     Br1169   1.940       .  S
C1162     Br1173   1.934       .  S
C1163      C1164   1.411       .  A
C1163      C1168   1.407       .  A
C1164      C1165   1.417       .  A
C1164     Br1175   1.926       .  S
C1165      C1166   1.418       .  A
C1165     Br1171   1.929       .  S
C1166      C1167   1.417       .  A
C1167      C1168   1.398       .  A
C1167     Br1176   1.937       .  S
C1168     Br1172   1.926       .  S
C1177      C1178   1.424       .  A
C1177      C1182   1.425   1_655  A
C1178      C1179   1.413       .  A
C1178     Br1190   1.932       .  S
C1179      C1180   1.409       .  A
C1179     Br1194   1.934       .  S
C1180      C1183   1.502       .  S
C1180      C1181   1.411   1_655  A
C1181      C1182   1.416       .  A
C1181     Br1189   1.932       .  S
C1182     Br1193   1.935       .  S
C1183      C1184   1.398       .  A
C1183      C1188   1.410       .  A
C1184      C1185   1.406       .  A
C1184     Br1195   1.945       .  S
C1185      C1186   1.450       .  A
C1185     Br1191   1.940       .  S
C1186      C1187   1.442       .  A
C1187      C1188   1.427       .  A
C1187     Br1196   1.942       .  S
C1188     Br1192   1.931   1_655  S
C1197      C1198   1.460       .  A
C1197      C1202   1.453   1_655  A
C1198      C1199   1.411       .  A
C1198     Br1210   1.951       .  S
C1199      C1200   1.394       .  A
C1199     Br1214   1.941       .  S
C1200      C1203   1.485       .  S
C1200      C1201   1.394   1_655  A
C1201      C1202   1.412       .  A
C1201     Br1209   1.941       .  S
C1202     Br1213   1.929       .  S
C1203      C1204   1.407       .  A
C1203      C1208   1.403   1_655  A
C1204      C1205   1.410       .  A
C1204     Br1215   1.933       .  S
C1205      C1206   1.420   1_655  A
C1205     Br1211   1.930       .  S
C1206      C1207   1.418       .  A
C1207      C1208   1.406       .  A
C1207     Br1216   1.919       .  S
C1208     Br1212   1.933       .  S
C1217      C1218   1.414       .  A
C1217      C1222   1.407       .  A
C1218      C1219   1.413       .  A
C1218     Br1230   1.930       .  S
C1219      C1220   1.413       .  A
C1219     Br1234   1.930       .  S
C1220      C1223   1.501       .  S
C1220      C1221   1.416       .  A
C1221      C1222   1.408       .  A
C1221     Br1229   1.930       .  S
C1222     Br1233   1.928       .  S
C1223      C1224   1.404       .  A
C1223      C1228   1.399       .  A
C1224      C1225   1.422       .  A
C1224     Br1235   1.941       .  S
C1225      C1226   1.452       .  A
C1225     Br1231   1.922       .  S
C1226      C1227   1.438       .  A
C1227      C1228   1.406       .  A
C1227     Br1236   1.920       .  S
C1228     Br1232   1.932       .  S
C1237      C1238   1.410       .  A
C1237      C1242   1.408       .  A
C1238      C1239   1.397       .  A
C1238     Br1250   1.921       .  S
C1239      C1240   1.406       .  A
C1239     Br1254   1.933       .  S
C1240      C1243   1.471       .  S
C1240      C1241   1.407       .  A
C1241      C1242   1.403       .  A
C1241     Br1249   1.929       .  S
C1242     Br1253   1.924       .  S
C1243      C1244   1.390       .  A
C1243      C1248   1.398       .  A
C1244      C1245   1.399       .  A
C1244     Br1255   1.946       .  S
C1245      C1246   1.458       .  A
C1245     Br1251   1.945       .  S
C1246      C1247   1.443       .  A
C1247      C1248   1.414       .  A
C1247     Br1256   1.927       .  S
C1248     Br1252   1.937       .  S
C1257      C1258   1.425       .  A
C1257      C1262   1.416       .  A
C1258      C1259   1.414       .  A
C1258     Br1270   1.929       .  S
C1259      C1260   1.408       .  A
C1259     Br1274   1.933       .  S
C1260      C1263   1.502       .  S
C1260      C1261   1.411       .  A
C1261      C1262   1.408       .  A
C1261     Br1269   1.919       .  S
C1262     Br1273   1.937       .  S
C1263      C1264   1.401       .  A
C1263      C1268   1.395       .  A
C1264      C1265   1.425       .  A
C1264     Br1275   1.940       .  S
C1265      C1266   1.455       .  A
C1265     Br1271   1.928       .  S
C1266      C1267   1.455       .  A
C1267      C1268   1.416       .  A
C1267     Br1276   1.927       .  S
C1268     Br1272   1.942       .  S
C1277      C1278   1.406       .  A
C1277      C1282   1.410       .  A
C1278      C1279   1.398       .  A
C1278     Br1290   1.926       .  S
C1279      C1280   1.408       .  A
C1279     Br1294   1.933       .  S
C1280      C1283   1.468       .  S
C1280      C1281   1.405       .  A
C1281      C1282   1.401       .  A
C1281     Br1289   1.928       .  S
C1282     Br1293   1.928       .  S
C1283      C1284   1.395       .  A
C1283      C1288   1.393       .  A
C1284      C1285   1.405       .  A
C1284     Br1295   1.939       .  S
C1285      C1286   1.446       .  A
C1285     Br1291   1.928       .  S
C1286      C1287   1.443       .  A
C1287      C1288   1.404       .  A
C1287     Br1296   1.919       .  S
C1288     Br1292   1.940       .  S
C1297      C1298   1.421       .  A
C1297      C1302   1.415       .  A
C1298      C1299   1.407       .  A
C1298     Br1310   1.934       .  S
C1299      C1300   1.406       .  A
C1299     Br1314   1.932       .  S
C1300      C1303   1.484       .  S
C1300      C1301   1.408       .  A
C1301      C1302   1.402       .  A
C1301     Br1309   1.927       .  S
C1302     Br1313   1.938       .  S
C1303      C1304   1.395       .  A
C1303      C1308   1.395       .  A
C1304      C1305   1.409       .  A
C1304     Br1315   1.944       .  S
C1305      C1306   1.455       .  A
C1305     Br1311   1.939       .  S
C1306      C1307   1.459       .  A
C1307      C1308   1.417       .  A
C1307     Br1316   1.942       .  S
C1308     Br1312   1.944       .  S
C1317      C1318   1.412       .  A
C1317      C1322   1.411       .  A
C1318      C1319   1.417       .  A
C1318     Br1330   1.926       .  S
C1319      C1320   1.414       .  A
C1319     Br1334   1.928       .  S
C1320      C1323   1.505       .  S
C1320      C1321   1.414       .  A
C1321      C1322   1.415       .  A
C1321     Br1329   1.929       .  S
C1322     Br1333   1.929       .  S
C1323      C1324   1.414       .  A
C1323      C1328   1.395       .  A
C1324      C1325   1.433       .  A
C1324     Br1335   1.927       .  S
C1325      C1326   1.445       .  A
C1325     Br1331   1.941       .  S
C1326      C1327   1.442       .  A
C1327      C1328   1.398       .  A
C1327     Br1336   1.929       .  S
C1328     Br1332   1.939       .  S
C1337      C1338   1.454       .  A
C1337      C1342   1.454       .  A
C1338      C1339   1.411       .  A
C1338     Br1350   1.926       .  S
C1339      C1340   1.394       .  A
C1339     Br1354   1.942       .  S
C1340      C1343   1.489       .  S
C1340      C1341   1.395       .  A
C1341      C1342   1.414       .  A
C1341     Br1349   1.946       .  S
C1342     Br1353   1.923       .  S
C1343      C1344   1.409       .  A
C1343      C1348   1.410       .  A
C1344      C1345   1.405       .  A
C1344     Br1355   1.934       .  S
C1345      C1346   1.419       .  A
C1345     Br1351   1.935       .  S
C1346      C1347   1.419       .  A
C1347      C1348   1.407       .  A
C1347     Br1356   1.934       .  S
C1348     Br1352   1.935       .  S
C1357      C1358   1.423       .  A
C1357      C1362   1.427       .  A
C1358      C1359   1.407       .  A
C1358     Br1370   1.933       .  S
C1359      C1360   1.404       .  A
C1359     Br1374   1.935       .  S
C1360      C1363   1.484       .  S
C1360      C1361   1.404       .  A
C1361      C1362   1.407       .  A
C1361     Br1369   1.935       .  S
C1362     Br1373   1.937       .  S
C1363      C1364   1.391       .  A
C1363      C1368   1.394       .  A
C1364      C1365   1.410       .  A
C1364     Br1375   1.942       .  S
C1365      C1366   1.455       .  A
C1365     Br1371   1.933       .  S
C1366      C1367   1.464       .  A
C1367      C1368   1.417       .  A
C1367     Br1376   1.942       .  S
C1368     Br1372   1.951       .  S
C1377      C1378   1.449       .  A
C1377      C1382   1.454   1_655  A
C1378      C1379   1.411       .  A
C1378     Br1390   1.939       .  S
C1379      C1380   1.398       .  A
C1379     Br1394   1.940       .  S
C1380      C1383   1.490       .  S
C1380      C1381   1.398   1_655  A
C1381      C1382   1.418       .  A
C1381     Br1389   1.939       .  S
C1382     Br1393   1.926       .  S
C1383      C1384   1.413       .  A
C1383      C1388   1.409       .  A
C1384      C1385   1.413       .  A
C1384     Br1395   1.927       .  S
C1385      C1386   1.410       .  A
C1385     Br1391   1.927       .  S
C1386      C1387   1.410       .  A
C1387      C1388   1.402       .  A
C1387     Br1396   1.931       .  S
C1388     Br1392   1.932   1_655  S
C1397      C1398   1.416   1_455  A
C1397      C1402   1.422       .  A
C1398      C1399   1.415       .  A
C1398     Br1410   1.935       .  S
C1399      C1400   1.416   1_655  A
C1399     Br1414   1.927       .  S
C1400      C1403   1.508       .  S
C1400      C1401   1.412       .  A
C1401      C1402   1.412       .  A
C1401     Br1409   1.932       .  S
C1402     Br1413   1.935       .  S
C1403      C1404   1.404       .  A
C1403      C1408   1.406   1_455  A
C1404      C1405   1.405       .  A
C1404     Br1415   1.924       .  S
C1405      C1406   1.425   1_455  A
C1405     Br1411   1.928       .  S
C1406      C1407   1.463       .  A
C1407      C1408   1.422       .  A
C1407     Br1416   1.946       .  S
C1408     Br1412   1.935       .  S
C1417      C1418   1.420       .  A
C1417      C1422   1.421       .  A
C1418      C1419   1.402       .  A
C1418     Br1430   1.935       .  S
C1419      C1420   1.405       .  A
C1419     Br1434   1.936       .  S
C1420      C1423   1.478       .  S
C1420      C1421   1.405       .  A
C1421      C1422   1.406       .  A
C1421     Br1429   1.929       .  S
C1422     Br1433   1.937       .  S
C1423      C1424   1.402       .  A
C1423      C1428   1.394       .  A
C1424      C1425   1.419       .  A
C1424     Br1435   1.937       .  S
C1425      C1426   1.449       .  A
C1425     Br1431   1.945       .  S
C1426      C1427   1.437       .  A
C1427      C1428   1.395       .  A
C1427     Br1436   1.940       .  S
C1428     Br1432   1.936       .  S
C1437      C1438   1.407       .  A
C1437      C1442   1.404       .  A
C1438      C1439   1.405       .  A
C1438     Br1450   1.931       .  S
C1439      C1440   1.411       .  A
C1439     Br1454   1.931       .  S
C1440      C1443   1.481       .  S
C1440      C1441   1.412       .  A
C1441      C1442   1.403       .  A
C1441     Br1449   1.923       .  S
C1442     Br1453   1.932       .  S
C1443      C1444   1.408       .  A
C1443      C1448   1.392       .  A
C1444      C1445   1.424       .  A
C1444     Br1455   1.931       .  S
C1445      C1446   1.442       .  A
C1445     Br1451   1.927       .  S
C1446      C1447   1.438       .  A
C1447      C1448   1.392       .  A
C1447     Br1456   1.929       .  S
C1448     Br1452   1.938       .  S
C1457      C1458   1.425       .  A
C1457      C1462   1.416       .  A
C1458      C1459   1.407       .  A
C1458     Br1470   1.935       .  S
C1459      C1460   1.403       .  A
C1459     Br1474   1.934       .  S
C1460      C1463   1.485       .  S
C1460      C1461   1.412       .  A
C1461      C1462   1.404       .  A
C1461     Br1469   1.926       .  S
C1462     Br1473   1.938       .  S
C1463      C1464   1.402       .  A
C1463      C1468   1.387       .  A
C1464      C1465   1.424       .  A
C1464     Br1475   1.936       .  S
C1465      C1466   1.452       .  A
C1465     Br1471   1.927       .  S
C1466      C1467   1.454       .  A
C1467      C1468   1.397       .  A
C1467     Br1476   1.934       .  S
C1468     Br1472   1.945       .  S
C1477      C1478   1.425       .  A
C1477      C1482   1.423       .  A
C1478      C1479   1.416       .  A
C1478     Br1490   1.933       .  S
C1479      C1480   1.410       .  A
C1479     Br1494   1.932       .  S
C1480      C1483   1.511       .  S
C1480      C1481   1.413       .  A
C1481      C1482   1.417       .  A
C1481     Br1489   1.933       .  S
C1482     Br1493   1.934       .  S
C1483      C1484   1.402       .  A
C1483      C1488   1.402       .  A
C1484      C1485   1.422       .  A
C1484     Br1495   1.941       .  S
C1485      C1486   1.453       .  A
C1485     Br1491   1.950       .  S
C1486      C1487   1.456       .  A
C1487      C1488   1.421       .  A
C1487     Br1496   1.944       .  S
C1488     Br1492   1.942       .  S
C1497      C1498   1.420       .  A
C1497      C1502   1.421       .  A
C1498      C1499   1.409       .  A
C1498     Br1510   1.934       .  S
C1499      C1500   1.407       .  A
C1499     Br1514   1.933       .  S
C1500      C1503   1.488       .  S
C1500      C1501   1.406       .  A
C1501      C1502   1.409       .  A
C1501     Br1509   1.933       .  S
C1502     Br1513   1.929       .  S
C1503      C1504   1.393       .  A
C1503      C1508   1.396       .  A
C1504      C1505   1.410       .  A
C1504     Br1515   1.943       .  S
C1505      C1506   1.457       .  A
C1505     Br1511   1.940   1_565  S
C1506      C1507   1.463       .  A
C1507      C1508   1.416       .  A
C1507     Br1516   1.951       .  S
C1508     Br1512   1.945       .  S
C1517      C1518   1.422       .  A
C1517      C1522   1.422       .  A
C1518      C1519   1.409       .  A
C1518     Br1530   1.932       .  S
C1519      C1520   1.407       .  A
C1519     Br1534   1.933       .  S
C1520      C1523   1.492       .  S
C1520      C1521   1.409       .  A
C1521      C1522   1.406       .  A
C1521     Br1529   1.931       .  S
C1522     Br1533   1.938       .  S
C1523      C1524   1.395       .  A
C1523      C1528   1.394       .  A
C1524      C1525   1.421       .  A
C1524     Br1535   1.948       .  S
C1525      C1526   1.463       .  A
C1525     Br1531   1.940       .  S
C1526      C1527   1.462       .  A
C1527      C1528   1.414       .  A
C1527     Br1536   1.940   1_565  S
C1528     Br1532   1.949       .  S
C1537      C1538   1.429       .  A
C1537      C1542   1.426       .  A
C1538      C1539   1.408       .  A
C1538     Br1550   1.938       .  S
C1539      C1540   1.402       .  A
C1539     Br1554   1.934       .  S
C1540      C1543   1.483       .  S
C1540      C1541   1.405       .  A
C1541      C1542   1.405       .  A
C1541     Br1549   1.930       .  S
C1542     Br1553   1.941       .  S
C1543      C1544   1.396       .  A
C1543      C1548   1.394       .  A
C1544      C1545   1.411       .  A
C1544     Br1555   1.938       .  S
C1545      C1546   1.444       .  A
C1545     Br1551   1.928   1_565  S
C1546      C1547   1.457       .  A
C1547      C1548   1.411       .  A
C1547     Br1556   1.944       .  S
C1548     Br1552   1.944       .  S
C1557      C1558   1.402       .  A
C1557      C1562   1.409       .  A
C1558      C1559   1.396       .  A
C1558     Br1570   1.929       .  S
C1559      C1560   1.411       .  A
C1559     Br1574   1.931       .  S
C1560      C1563   1.478       .  S
C1560      C1561   1.413       .  A
C1561      C1562   1.406       .  A
C1561     Br1569   1.931       .  S
C1562     Br1573   1.930       .  S
C1563      C1564   1.393       .  A
C1563      C1568   1.397       .  A
C1564      C1565   1.399       .  A
C1564     Br1575   1.935       .  S
C1565      C1566   1.451       .  A
C1565     Br1571   1.931       .  S
C1566      C1567   1.454       .  A
C1567      C1568   1.407       .  A
C1567     Br1576   1.936       .  S
C1568     Br1572   1.937       .  S
C1577      C1578   1.456       .  A
C1577      C1582   1.456       .  A
C1578      C1579   1.410       .  A
C1578     Br1590   1.937       .  S
C1579      C1580   1.394       .  A
C1579     Br1594   1.938       .  S
C1580      C1583   1.495       .  S
C1580      C1581   1.400       .  A
C1581      C1582   1.419       .  A
C1581     Br1589   1.939       .  S
C1582     Br1593   1.944       .  S
C1583      C1584   1.408       .  A
C1583      C1588   1.407       .  A
C1584      C1585   1.413       .  A
C1584     Br1595   1.933       .  S
C1585      C1586   1.423       .  A
C1585     Br1591   1.931       .  S
C1586      C1587   1.420       .  A
C1587      C1588   1.410       .  A
C1587     Br1596   1.930       .  S
C1588     Br1592   1.932       .  S
C1597      C1598   1.455       .  A
C1597      C1602   1.450       .  A
C1598      C1599   1.406       .  A
C1598     Br1610   1.943       .  S
C1599      C1600   1.400       .  A
C1599     Br1614   1.935       .  S
C1600      C1603   1.490       .  S
C1600      C1601   1.398       .  A
C1601      C1602   1.404       .  A
C1601     Br1609   1.934       .  S
C1602     Br1613   1.935       .  S
C1603      C1604   1.415       .  A
C1603      C1608   1.408       .  A
C1604      C1605   1.412       .  A
C1604     Br1615   1.932       .  S
C1605      C1606   1.415       .  A
C1605     Br1611   1.930       .  S
C1606      C1607   1.419       .  A
C1607      C1608   1.400       .  A
C1607     Br1616   1.935       .  S
C1608     Br1612   1.936       .  S
C1617      C1618   1.429       .  A
C1617      C1622   1.451       .  A
C1618      C1619   1.390       .  A
C1618     Br1630   1.922       .  S
C1619      C1620   1.396       .  A
C1619     Br1634   1.928       .  S
C1620      C1623   1.492       .  S
C1620      C1621   1.412       .  A
C1621      C1622   1.421       .  A
C1621     Br1629   1.936       .  S
C1622     Br1633   1.931       .  S
C1623      C1624   1.420       .  A
C1623      C1628   1.412       .  A
C1624      C1625   1.407       .  A
C1624     Br1635   1.931       .  S
C1625      C1626   1.403       .  A
C1625     Br1631   1.924       .  S
C1626      C1627   1.406       .  A
C1627      C1628   1.402       .  A
C1627     Br1636   1.921       .  S
C1628     Br1632   1.931       .  S
C1637      C1638   1.426       .  A
C1637      C1642   1.417       .  A
C1638      C1639   1.397       .  A
C1638     Br1650   1.941       .  S
C1639      C1640   1.401       .  A
C1639     Br1654   1.928       .  S
C1640      C1643   1.482       .  S
C1640      C1641   1.407       .  A
C1641      C1642   1.411       .  A
C1641     Br1649   1.929       .  S
C1642     Br1653   1.924       .  S
C1643      C1644   1.395       .  A
C1643      C1648   1.387       .  A
C1644      C1645   1.417       .  A
C1644     Br1655   1.946       .  S
C1645      C1646   1.456       .  A
C1645     Br1651   1.925       .  S
C1646      C1647   1.464       .  A
C1647      C1648   1.409       .  A
C1647     Br1656   1.941       .  S
C1648     Br1652   1.946       .  S
C1657      C1658   1.427       .  A
C1657      C1662   1.432   1_556  A
C1658      C1659   1.412       .  A
C1658     Br1670   1.938       .  S
C1659      C1660   1.407       .  A
C1659     Br1674   1.934       .  S
C1660      C1663   1.495       .  S
C1660      C1661   1.406   1_556  A
C1661      C1662   1.411       .  A
C1661     Br1669   1.936       .  S
C1662     Br1673   1.942       .  S
C1663      C1664   1.400       .  A
C1663      C1668   1.396   1_556  A
C1664      C1665   1.418       .  A
C1664     Br1675   1.939       .  S
C1665      C1666   1.458       .  A
C1665     Br1671   1.943       .  S
C1666      C1667   1.454   1_556  A
C1667      C1668   1.408       .  A
C1667     Br1676   1.934       .  S
C1668     Br1672   1.940       .  S
C1677      C1678   1.450   1_556  A
C1677      C1682   1.458       .  A
C1678      C1679   1.411   1_554  A
C1678     Br1690   1.945       .  S
C1679      C1680   1.403       .  A
C1679     Br1694   1.939   1_556  S
C1680      C1683   1.493       .  S
C1680      C1681   1.396       .  A
C1681      C1682   1.412       .  A
C1681     Br1689   1.937       .  S
C1682     Br1693   1.936       .  S
C1683      C1684   1.405       .  A
C1683      C1688   1.413       .  A
C1684      C1685   1.404       .  A
C1684     Br1695   1.935   1_556  S
C1685      C1686   1.423       .  A
C1685     Br1691   1.931   1_556  S
C1686      C1687   1.416       .  A
C1687      C1688   1.414       .  A
C1687     Br1696   1.930       .  S
C1688     Br1692   1.927       .  S
C1697      C1698   1.433   1_556  A
C1697      C1702   1.427       .  A
C1698      C1699   1.413       .  A
C1698     Br1710   1.935       .  S
C1699      C1700   1.406   1_554  A
C1699     Br1714   1.937       .  S
C1700      C1703   1.498       .  S
C1700      C1701   1.405       .  A
C1701      C1702   1.413       .  A
C1701     Br1709   1.932       .  S
C1702     Br1713   1.934       .  S
C1703      C1704   1.397   1_556  A
C1703      C1708   1.396       .  A
C1704      C1705   1.420       .  A
C1704     Br1715   1.943       .  S
C1705      C1706   1.454   1_554  A
C1705     Br1711   1.922       .  S
C1706      C1707   1.459       .  A
C1707      C1708   1.415       .  A
C1707     Br1716   1.941   1_556  S
C1708     Br1712   1.944       .  S
C1717      C1718   1.427       .  A
C1717      C1722   1.423       .  A
C1718      C1719   1.397       .  A
C1718     Br1730   1.941   1_556  S
C1719      C1720   1.403       .  A
C1719     Br1734   1.933   1_556  S
C1720      C1723   1.505       .  S
C1720      C1721   1.417       .  A
C1721      C1722   1.426       .  A
C1721     Br1729   1.928       .  S
C1722     Br1733   1.929       .  S
C1723      C1724   1.396       .  A
C1723      C1728   1.400   1_556  A
C1724      C1725   1.420       .  A
C1724     Br1735   1.940       .  S
C1725      C1726   1.459       .  A
C1725     Br1731   1.929       .  S
C1726      C1727   1.451   1_556  A
C1727      C1728   1.421       .  A
C1727     Br1736   1.918       .  S
C1728     Br1732   1.943       .  S
C1737      C1738   1.461       .  A
C1737      C1742   1.456       .  A
C1738      C1739   1.416       .  A
C1738     Br1750   1.953       .  S
C1739      C1740   1.397       .  A
C1739     Br1754   1.943       .  S
C1740      C1743   1.489       .  S
C1740      C1741   1.393       .  A
C1741      C1742   1.414       .  A
C1741     Br1749   1.946       .  S
C1742     Br1753   1.927       .  S
C1743      C1744   1.412       .  A
C1743      C1748   1.410       .  A
C1744      C1745   1.408       .  A
C1744     Br1755   1.929       .  S
C1745      C1746   1.408       .  A
C1745     Br1751   1.929       .  S
C1746      C1747   1.410       .  A
C1747      C1748   1.405       .  A
C1747     Br1756   1.929       .  S
C1748     Br1752   1.929       .  S
C1757      C1758   1.410       .  A
C1757      C1762   1.414       .  A
C1758      C1759   1.406       .  A
C1758     Br1770   1.930       .  S
C1759      C1760   1.409       .  A
C1759     Br1774   1.930       .  S
C1760      C1763   1.479       .  S
C1760      C1761   1.406       .  A
C1761      C1762   1.400       .  A
C1761     Br1769   1.934       .  S
C1762     Br1773   1.930       .  S
C1763      C1764   1.392       .  A
C1763      C1768   1.389       .  A
C1764      C1765   1.410       .  A
C1764     Br1775   1.946       .  S
C1765      C1766   1.451       .  A
C1765     Br1771   1.929       .  S
C1766      C1767   1.472       .  A
C1767      C1768   1.416       .  A
C1767     Br1776   1.947       .  S
C1768     Br1772   1.952       .  S
C1777      C1778   1.458       .  A
C1777      C1782   1.451   1_554  A
C1778      C1779   1.415       .  A
C1778     Br1790   1.941       .  S
C1779      C1780   1.396   1_554  A
C1779     Br1794   1.944       .  S
C1780      C1783   1.485       .  S
C1780      C1781   1.394       .  A
C1781      C1782   1.411       .  A
C1781     Br1789   1.940       .  S
C1782     Br1793   1.924       .  S
C1783      C1784   1.410   1_556  A
C1783      C1788   1.405       .  A
C1784      C1785   1.409       .  A
C1784     Br1795   1.929       .  S
C1785      C1786   1.413   1_554  A
C1785     Br1791   1.932       .  S
C1786      C1787   1.416       .  A
C1787      C1788   1.403       .  A
C1787     Br1796   1.923       .  S
C1788     Br1792   1.932       .  S
C1797      C1798   1.450       .  A
C1797      C1802   1.443   1_554  A
C1798      C1799   1.418       .  A
C1798     Br1810   1.947       .  S
C1799      C1800   1.400       .  A
C1799     Br1814   1.940       .  S
C1800      C1803   1.486       .  S
C1800      C1801   1.395   1_554  A
C1801      C1802   1.404       .  A
C1801     Br1809   1.938       .  S
C1802     Br1813   1.938       .  S
C1803      C1804   1.409       .  A
C1803      C1808   1.403   1_554  A
C1804      C1805   1.418       .  A
C1804     Br1815   1.927       .  S
C1805      C1806   1.420       .  A
C1805     Br1811   1.927       .  S
C1806      C1807   1.421   1_554  A
C1807      C1808   1.397       .  A
C1807     Br1816   1.923       .  S
C1808     Br1812   1.942       .  S
C1817      C1818   1.421   1_554  A
C1817      C1822   1.430       .  A
C1818      C1819   1.406       .  A
C1818     Br1830   1.937       .  S
C1819      C1820   1.407   1_556  A
C1819     Br1834   1.933       .  S
C1820      C1823   1.486       .  S
C1820      C1821   1.404       .  A
C1821      C1822   1.410       .  A
C1821     Br1829   1.933       .  S
C1822     Br1833   1.941       .  S
C1823      C1824   1.399   1_554  A
C1823      C1828   1.391       .  A
C1824      C1825   1.423       .  A
C1824     Br1835   1.939       .  S
C1825      C1826   1.455       .  A
C1825     Br1831   1.925       .  S
C1826      C1827   1.452   1_556  A
C1827      C1828   1.400       .  A
C1827     Br1836   1.940   1_554  S
C1828     Br1832   1.941       .  S
C1837      C1838   1.457       .  A
C1837      C1842   1.458   1_554  A
C1838      C1839   1.408       .  A
C1838     Br1850   1.935       .  S
C1839      C1840   1.391       .  A
C1839     Br1854   1.940       .  S
C1840      C1843   1.490       .  S
C1840      C1841   1.400   1_554  A
C1841      C1842   1.420       .  A
C1841     Br1849   1.942       .  S
C1842     Br1853   1.933       .  S
C1843      C1844   1.414       .  A
C1843      C1848   1.406       .  A
C1844      C1845   1.410       .  A
C1844     Br1855   1.927       .  S
C1845      C1846   1.404       .  A
C1845     Br1851   1.914       .  S
C1846      C1847   1.412       .  A
C1847      C1848   1.405       .  A
C1847     Br1856   1.917       .  S
C1848     Br1852   1.932       .  S
C1857      C1858   1.416       .  A
C1857      C1862   1.422   1_545  A
C1858      C1859   1.407       .  A
C1858     Br1870   1.932       .  S
C1859      C1860   1.408       .  A
C1859     Br1874   1.931       .  S
C1860      C1863   1.483       .  S
C1860      C1861   1.404   1_545  A
C1861      C1862   1.405       .  A
C1861     Br1869   1.933       .  S
C1862     Br1873   1.932       .  S
C1863      C1864   1.396       .  A
C1863      C1868   1.391   1_545  A
C1864      C1865   1.415       .  A
C1864     Br1875   1.944       .  S
C1865      C1866   1.461       .  A
C1865     Br1871   1.950       .  S
C1866      C1867   1.455   1_545  A
C1867      C1868   1.407       .  A
C1867     Br1876   1.936       .  S
C1868     Br1872   1.943       .  S
C1877      C1878   1.461       .  A
C1877      C1882   1.451   1_545  A
C1878      C1879   1.415       .  A
C1878     Br1890   1.956       .  S
C1879      C1880   1.398       .  A
C1879     Br1894   1.943       .  S
C1880      C1883   1.488       .  S
C1880      C1881   1.396   1_545  A
C1881      C1882   1.413       .  A
C1881     Br1889   1.945       .  S
C1882     Br1893   1.925       .  S
C1883      C1884   1.411       .  A
C1883      C1888   1.413       .  A
C1884      C1885   1.406       .  A
C1884     Br1895   1.930       .  S
C1885      C1886   1.409       .  A
C1885     Br1891   1.931       .  S
C1886      C1887   1.406       .  A
C1887      C1888   1.405       .  A
C1887     Br1896   1.930       .  S
C1888     Br1892   1.930       .  S
C1897      C1898   1.407       .  A
C1897      C1902   1.409       .  A
C1898      C1899   1.404       .  A
C1898     Br1910   1.930       .  S
C1899      C1900   1.410       .  A
C1899     Br1914   1.928       .  S
C1900      C1903   1.479       .  S
C1900      C1901   1.408       .  A
C1901      C1902   1.402       .  A
C1901     Br1909   1.934       .  S
C1902     Br1913   1.918       .  S
C1903      C1904   1.396       .  A
C1903      C1908   1.394       .  A
C1904      C1905   1.413       .  A
C1904     Br1915   1.945       .  S
C1905      C1906   1.460       .  A
C1905     Br1911   1.953       .  S
C1906      C1907   1.453       .  A
C1907      C1908   1.406       .  A
C1907     Br1916   1.942       .  S
C1908     Br1912   1.942       .  S
C1917      C1918   1.456       .  A
C1917      C1922   1.465       .  A
C1918      C1919   1.410       .  A
C1918     Br1930   1.929       .  S
C1919      C1920   1.392       .  A
C1919     Br1934   1.942       .  S
C1920      C1923   1.496       .  S
C1920      C1921   1.397       .  A
C1921      C1922   1.424       .  A
C1921     Br1929   1.944       .  S
C1922     Br1933   1.938       .  S
C1923      C1924   1.407       .  A
C1923      C1928   1.406       .  A
C1924      C1925   1.414       .  A
C1924     Br1935   1.933       .  S
C1925      C1926   1.424       .  A
C1925     Br1931   1.929       .  S
C1926      C1927   1.425       .  A
C1927      C1928   1.411       .  A
C1927     Br1936   1.934       .  S
C1928     Br1932   1.933       .  S
C1937      C1938   1.451       .  A
C1937      C1942   1.452       .  A
C1938      C1939   1.414       .  A
C1938     Br1950   1.929       .  S
C1939      C1940   1.396       .  A
C1939     Br1954   1.941       .  S
C1940      C1943   1.478       .  S
C1940      C1941   1.394       .  A
C1941      C1942   1.402       .  A
C1941     Br1949   1.944       .  S
C1942     Br1953   1.939       .  S
C1943      C1944   1.410       .  A
C1943      C1948   1.411       .  A
C1944      C1945   1.398       .  A
C1944     Br1955   1.929       .  S
C1945      C1946   1.402       .  A
C1945     Br1951   1.922       .  S
C1946      C1947   1.411       .  A
C1947      C1948   1.405       .  A
C1947     Br1956   1.929       .  S
C1948     Br1952   1.932       .  S
C1957      C1958   1.427       .  A
C1957      C1962   1.422       .  A
C1958      C1959   1.409       .  A
C1958     Br1970   1.940       .  S
C1959      C1960   1.409       .  A
C1959     Br1974   1.933       .  S
C1960      C1963   1.496       .  S
C1960      C1961   1.408       .  A
C1961      C1962   1.412       .  A
C1961     Br1969   1.932       .  S
C1962     Br1973   1.934       .  S
C1963      C1964   1.400       .  A
C1963      C1968   1.394       .  A
C1964      C1965   1.417       .  A
C1964     Br1975   1.939       .  S
C1965      C1966   1.457       .  A
C1965     Br1971   1.944       .  S
C1966      C1967   1.455       .  A
C1967      C1968   1.411       .  A
C1967     Br1976   1.927       .  S
C1968     Br1972   1.940       .  S
C1977      C1978   1.415       .  A
C1977      C1982   1.420       .  A
C1978      C1979   1.410       .  A
C1978     Br1990   1.912       .  S
C1979      C1980   1.406       .  A
C1979     Br1994   1.932       .  S
C1980      C1983   1.495       .  S
C1980      C1981   1.408       .  A
C1981      C1982   1.413       .  A
C1981     Br1989   1.931       .  S
C1982     Br1993   1.925       .  S
C1983      C1984   1.398       .  A
C1983      C1988   1.391       .  A
C1984      C1985   1.421       .  A
C1984     Br1995   1.939       .  S
C1985      C1986   1.461       .  A
C1985     Br1991   1.944       .  S
C1986      C1987   1.459       .  A
C1987      C1988   1.412       .  A
C1987     Br1996   1.927       .  S
C1988     Br1992   1.943       .  S
C1997      C1998   1.467       .  A
C1997      C2002   1.456       .  A
C1998      C1999   1.424       .  A
C1998     Br2010   1.947       .  S
C1999      C2000   1.398       .  A
C1999     Br2014   1.949       .  S
C2000      C2003   1.500       .  S
C2000      C2001   1.395       .  A
C2001      C2002   1.415       .  A
C2001     Br2009   1.943       .  S
C2002     Br2013   1.936   1_554  S
C2003      C2004   1.408       .  A
C2003      C2008   1.410       .  A
C2004      C2005   1.412       .  A
C2004     Br2015   1.933       .  S
C2005      C2006   1.425       .  A
C2005     Br2011   1.933       .  S
C2006      C2007   1.420       .  A
C2007      C2008   1.412       .  A
C2007     Br2016   1.933       .  S
C2008     Br2012   1.932       .  S
C2017      C2018   1.428       .  A
C2017      C2022   1.431       .  A
C2018      C2019   1.409       .  A
C2018     Br2030   1.939       .  S
C2019      C2020   1.404       .  A
C2019     Br2034   1.932       .  S
C2020      C2023   1.487       .  S
C2020      C2021   1.405       .  A
C2021      C2022   1.408       .  A
C2021     Br2029   1.937       .  S
C2022     Br2033   1.942       .  S
C2023      C2024   1.401       .  A
C2023      C2028   1.399       .  A
C2024      C2025   1.416       .  A
C2024     Br2035   1.936       .  S
C2025      C2026   1.448       .  A
C2025     Br2031   1.927       .  S
C2026      C2027   1.437       .  A
C2027      C2028   1.402       .  A
C2027     Br2036   1.920       .  S
C2028     Br2032   1.935       .  S
C2037      C2038   1.413       .  A
C2037      C2042   1.419       .  A
C2038      C2039   1.410       .  A
C2038     Br2050   1.933       .  S
C2039      C2040   1.412       .  A
C2039     Br2054   1.925       .  S
C2040      C2043   1.494       .  S
C2040      C2041   1.407       .  A
C2041      C2042   1.408       .  A
C2041     Br2049   1.933       .  S
C2042     Br2053   1.933       .  S
C2043      C2044   1.393       .  A
C2043      C2048   1.400       .  A
C2044      C2045   1.410       .  A
C2044     Br2055   1.948       .  S
C2045      C2046   1.457       .  A
C2045     Br2051   1.934       .  S
C2046      C2047   1.456       .  A
C2047      C2048   1.424       .  A
C2047     Br2056   1.931       .  S
C2048     Br2052   1.939       .  S
C2057      C2058   1.461       .  A
C2057      C2062   1.451       .  A
C2058      C2059   1.403       .  A
C2058     Br2070   1.945   1_554  S
C2059      C2060   1.389       .  A
C2059     Br2074   1.947       .  S
C2060      C2063   1.484       .  S
C2060      C2061   1.399       .  A
C2061      C2062   1.423       .  A
C2061     Br2069   1.935       .  S
C2062     Br2073   1.930       .  S
C2063      C2064   1.411       .  A
C2063      C2068   1.412       .  A
C2064      C2065   1.403       .  A
C2064     Br2075   1.925       .  S
C2065      C2066   1.405       .  A
C2065     Br2071   1.930       .  S
C2066      C2067   1.408       .  A
C2067      C2068   1.407       .  A
C2067     Br2076   1.930       .  S
C2068     Br2072   1.929       .  S
C2077      C2078   1.450       .  A
C2077      C2082   1.449       .  A
C2078      C2079   1.412       .  A
C2078     Br2090   1.935       .  S
C2079      C2080   1.398       .  A
C2079     Br2094   1.938       .  S
C2080      C2083   1.479       .  S
C2080      C2081   1.394       .  A
C2081      C2082   1.401       .  A
C2081     Br2089   1.945       .  S
C2082     Br2093   1.921       .  S
C2083      C2084   1.405       .  A
C2083      C2088   1.407       .  A
C2084      C2085   1.403       .  A
C2084     Br2095   1.937       .  S
C2085      C2086   1.426       .  A
C2085     Br2091   1.940       .  S
C2086      C2087   1.421       .  A
C2087      C2088   1.404       .  A
C2087     Br2096   1.937       .  S
C2088     Br2092   1.934       .  S
C2097      C2098   1.420       .  A
C2097      C2102   1.417       .  A
C2098      C2099   1.409       .  A
C2098     Br2110   1.927       .  S
C2099      C2100   1.404       .  A
C2099     Br2114   1.931       .  S
C2100      C2103   1.489       .  S
C2100      C2101   1.411       .  A
C2101      C2102   1.410       .  A
C2101     Br2109   1.932       .  S
C2102     Br2113   1.932       .  S
C2103      C2104   1.392       .  A
C2103      C2108   1.398       .  A
C2104      C2105   1.408       .  A
C2104     Br2115   1.941       .  S
C2105      C2106   1.455       .  A
C2105     Br2111   1.934       .  S
C2106      C2107   1.443       .  A
C2107      C2108   1.416       .  A
C2107     Br2116   1.921       .  S
C2108     Br2112   1.937       .  S
C2117      C2118   1.434       .  A
C2117      C2122   1.420       .  A
C2118      C2119   1.403       .  A
C2118     Br2130   1.944       .  S
C2119      C2120   1.401       .  A
C2119     Br2134   1.940       .  S
C2120      C2123   1.481       .  S
C2120      C2121   1.405       .  A
C2121      C2122   1.411       .  A
C2121     Br2129   1.928       .  S
C2122     Br2133   1.928       .  S
C2123      C2124   1.404       .  A
C2123      C2128   1.395       .  A
C2124      C2125   1.416       .  A
C2124     Br2135   1.931       .  S
C2125      C2126   1.448       .  A
C2125     Br2131   1.950       .  S
C2126      C2127   1.445       .  A
C2127      C2128   1.398       .  A
C2127     Br2136   1.948       .  S
C2128     Br2132   1.938       .  S
C2137      C2138   1.418   1_545  A
C2137      C2142   1.427       .  A
C2138      C2139   1.408       .  A
C2138     Br2150   1.933       .  S
C2139      C2140   1.408   1_565  A
C2139     Br2154   1.932       .  S
C2140      C2143   1.483       .  S
C2140      C2141   1.404       .  A
C2141      C2142   1.403       .  A
C2141     Br2149   1.935       .  S
C2142     Br2153   1.941       .  S
C2143      C2144   1.395   1_545  A
C2143      C2148   1.395       .  A
C2144      C2145   1.409       .  A
C2144     Br2155   1.938       .  S
C2145      C2146   1.458   1_565  A
C2145     Br2151   1.946       .  S
C2146      C2147   1.451       .  A
C2147      C2148   1.407       .  A
C2147     Br2156   1.927       .  S
C2148     Br2152   1.941       .  S
C2157      C2158   1.432   1_545  A
C2157      C2162   1.441       .  A
C2158      C2159   1.413       .  A
C2158     Br2170   1.937       .  S
C2159      C2160   1.403   1_565  A
C2159     Br2174   1.932       .  S
C2160      C2163   1.510       .  S
C2160      C2161   1.407       .  A
C2161      C2162   1.425       .  A
C2161     Br2169   1.933       .  S
C2162     Br2173   1.938       .  S
C2163      C2164   1.412       .  A
C2163      C2168   1.415       .  A
C2164      C2165   1.412       .  A
C2164     Br2175   1.934   1_545  S
C2165      C2166   1.412       .  A
C2165     Br2171   1.918   1_545  S
C2166      C2167   1.414       .  A
C2167      C2168   1.423       .  A
C2167     Br2176   1.926       .  S
C2168     Br2172   1.925       .  S
C2177      C2178   1.406       .  A
C2177      C2182   1.405       .  A
C2178      C2179   1.405       .  A
C2178     Br2190   1.931       .  S
C2179      C2180   1.411       .  A
C2179     Br2194   1.924       .  S
C2180      C2183   1.482       .  S
C2180      C2181   1.410       .  A
C2181      C2182   1.403       .  A
C2181     Br2189   1.930       .  S
C2182     Br2193   1.927       .  S
C2183      C2184   1.402       .  A
C2183      C2188   1.393       .  A
C2184      C2185   1.419       .  A
C2184     Br2195   1.932       .  S
C2185      C2186   1.447       .  A
C2185     Br2191   1.932       .  S
C2186      C2187   1.450       .  A
C2187      C2188   1.399       .  A
C2187     Br2196   1.949       .  S
C2188     Br2192   1.937       .  S
C2197      C2198   1.449       .  A
C2197      C2202   1.442       .  A
C2198      C2199   1.409       .  A
C2198     Br2210   1.943       .  S
C2199      C2200   1.397       .  A
C2199     Br2214   1.942       .  S
C2200      C2203   1.485       .  S
C2200      C2201   1.399       .  A
C2201      C2202   1.411       .  A
C2201     Br2209   1.936       .  S
C2202     Br2213   1.948       .  S
C2203      C2204   1.408       .  A
C2203      C2208   1.404       .  A
C2204      C2205   1.407       .  A
C2204     Br2215   1.935       .  S
C2205      C2206   1.422       .  A
C2205     Br2211   1.936       .  S
C2206      C2207   1.426       .  A
C2207      C2208   1.408       .  A
C2207     Br2216   1.936       .  S
C2208     Br2212   1.935       .  S
C2217      C2218   1.415       .  A
C2217      C2222   1.420       .  A
C2218      C2219   1.397       .  A
C2218     Br2230   1.938       .  S
C2219      C2220   1.405       .  A
C2219     Br2234   1.929       .  S
C2220      C2223   1.472       .  S
C2220      C2221   1.403       .  A
C2221      C2222   1.402       .  A
C2221     Br2229   1.934       .  S
C2222     Br2233   1.933       .  S
C2223      C2224   1.390       .  A
C2223      C2228   1.393       .  A
C2224      C2225   1.415       .  A
C2224     Br2235   1.948       .  S
C2225      C2226   1.464       .  A
C2225     Br2231   1.946       .  S
C2226      C2227   1.455       .  A
C2227      C2228   1.404       .  A
C2227     Br2236   1.938       .  S
C2228     Br2232   1.950       .  S
C2237      C2238   1.454       .  A
C2237      C2242   1.460       .  A
C2238      C2239   1.410       .  A
C2238     Br2250   1.931       .  S
C2239      C2240   1.395       .  A
C2239     Br2254   1.939       .  S
C2240      C2243   1.497       .  S
C2240      C2241   1.399       .  A
C2241      C2242   1.419       .  A
C2241     Br2249   1.939       .  S
C2242     Br2253   1.942       .  S
C2243      C2244   1.413       .  A
C2243      C2248   1.411       .  A
C2244      C2245   1.411       .  A
C2244     Br2255   1.930       .  S
C2245      C2246   1.412       .  A
C2245     Br2251   1.929       .  S
C2246      C2247   1.414       .  A
C2247      C2248   1.411       .  A
C2247     Br2256   1.930       .  S
C2248     Br2252   1.931       .  S
C2257      C2258   1.418       .  A
C2257      C2262   1.412       .  A
C2258      C2259   1.404       .  A
C2258     Br2270   1.915       .  S
C2259      C2260   1.403       .  A
C2259     Br2274   1.936       .  S
C2260      C2263   1.492       .  S
C2260      C2261   1.414       .  A
C2261      C2262   1.411       .  A
C2261     Br2269   1.926       .  S
C2262     Br2273   1.933       .  S
C2263      C2264   1.396       .  A
C2263      C2268   1.395       .  A
C2264      C2265   1.413       .  A
C2264     Br2275   1.947       .  S
C2265      C2266   1.450       .  A
C2265     Br2271   1.917       .  S
C2266      C2267   1.461       .  A
C2267      C2268   1.418       .  A
C2267     Br2276   1.939       .  S
C2268     Br2272   1.943       .  S
C2277      C2278   1.414       .  A
C2277      C2282   1.414       .  A
C2278      C2279   1.406       .  A
C2278     Br2290   1.928       .  S
C2279      C2280   1.407       .  A
C2279     Br2294   1.927       .  S
C2280      C2283   1.494       .  S
C2280      C2281   1.411       .  A
C2281      C2282   1.412       .  A
C2281     Br2289   1.929       .  S
C2282     Br2293   1.931       .  S
C2283      C2284   1.396       .  A
C2283      C2288   1.396       .  A
C2284      C2285   1.416       .  A
C2284     Br2295   1.943       .  S
C2285      C2286   1.453       .  A
C2285     Br2291   1.924       .  S
C2286      C2287   1.459       .  A
C2287      C2288   1.417       .  A
C2287     Br2296   1.949       .  S
C2288     Br2292   1.938       .  S
C2297      C2298   1.418       .  A
C2297      C2302   1.413       .  A
C2298      C2299   1.404       .  A
C2298     Br2310   1.932       .  S
C2299      C2300   1.405       .  A
C2299     Br2314   1.932       .  S
C2300      C2303   1.483       .  S
C2300      C2301   1.409       .  A
C2301      C2302   1.405       .  A
C2301     Br2309   1.923       .  S
C2302     Br2313   1.935       .  S
C2303      C2304   1.398       .  A
C2303      C2308   1.391       .  A
C2304      C2305   1.423       .  A
C2304     Br2315   1.939       .  S
C2305      C2306   1.457       .  A
C2305     Br2311   1.936       .  S
C2306      C2307   1.462       .  A
C2307      C2308   1.403       .  A
C2307     Br2316   1.945       .  S
C2308     Br2312   1.952       .  S
C2317      C2318   1.409       .  A
C2317      C2322   1.409       .  A
C2318      C2319   1.407       .  A
C2318     Br2330   1.925       .  S
C2319      C2320   1.410       .  A
C2319     Br2334   1.929       .  S
C2320      C2323   1.487       .  S
C2320      C2321   1.412       .  A
C2321      C2322   1.409       .  A
C2321     Br2329   1.930       .  S
C2322     Br2333   1.928       .  S
C2323      C2324   1.393       .  A
C2323      C2328   1.403       .  A
C2324      C2325   1.400       .  A
C2324     Br2335   1.942       .  S
C2325      C2326   1.452       .  A
C2325     Br2331   1.944   1_556  S
C2326      C2327   1.445       .  A
C2327      C2328   1.422       .  A
C2327     Br2336   1.928       .  S
C2328     Br2332   1.933       .  S
C2337      C2338   1.457       .  A
C2337      C2342   1.455       .  A
C2338      C2339   1.417       .  A
C2338     Br2350   1.944       .  S
C2339      C2340   1.396       .  A
C2339     Br2354   1.940       .  S
C2340      C2343   1.488       .  S
C2340      C2341   1.397       .  A
C2341      C2342   1.412       .  A
C2341     Br2349   1.944       .  S
C2342     Br2353   1.941   1_556  S
C2343      C2344   1.409       .  A
C2343      C2348   1.408       .  A
C2344      C2345   1.406       .  A
C2344     Br2355   1.926       .  S
C2345      C2346   1.413       .  A
C2345     Br2351   1.932       .  S
C2346      C2347   1.416       .  A
C2347      C2348   1.407       .  A
C2347     Br2356   1.931       .  S
C2348     Br2352   1.932       .  S
C2357      C2358   1.414       .  A
C2357      C2362   1.415       .  A
C2358      C2359   1.407       .  A
C2358     Br2370   1.932       .  S
C2359      C2360   1.409       .  A
C2359     Br2374   1.931       .  S
C2360      C2363   1.482       .  S
C2360      C2361   1.405       .  A
C2361      C2362   1.404       .  A
C2361     Br2369   1.931       .  S
C2362     Br2373   1.926       .  S
C2363      C2364   1.392       .  A
C2363      C2368   1.393       .  A
C2364      C2365   1.412       .  A
C2364     Br2375   1.938       .  S
C2365      C2366   1.456       .  A
C2365     Br2371   1.938   1_556  S
C2366      C2367   1.465       .  A
C2367      C2368   1.410       .  A
C2367     Br2376   1.951       .  S
C2368     Br2372   1.948       .  S
