geometry optimzed in LAMMPS
_audit_creation_date              2020-11-30 
_audit_creation_method            'lammps2cif' 
_symmetry_space_group_name_H-M    'P1' 
_symmetry_Int_Tables_number       1 
_symmetry_cell_setting            triclinic 
loop_ 
_symmetry_equiv_pos_as_xyz 
  x,y,z 
_cell_length_a                    47.42138217 
_cell_length_b                    39.83672964194767 
_cell_length_c                    34.58970437947078 
_cell_angle_alpha                 89.83800737680166 
_cell_angle_beta                  90.0981270564991 
_cell_angle_gamma                 90.03348208083645 
loop_ 
_atom_site_label 
_atom_site_type_symbol 
_atom_site_fract_x 
_atom_site_fract_y 
_atom_site_fract_z 
_atom_site_charge 
C1          C  0.70559384  0.21857418  0.70103080    -0.10700
C2          C  0.69402445  0.24835572  0.68684847    -0.04600
C3          C  0.70399540  0.27968158  0.69857423    -0.10700
C4          C  0.72699791  0.28185428  0.72433079     0.10200
C5          C  0.73897780  0.25194683  0.73934559    -0.02500
C6          C  0.72817998  0.22010119  0.72787286     0.10000
C7          C  0.74008721  0.19090884  0.74374196    -0.12500
C8          C  0.76218191  0.19287251  0.77037087    -0.12500
C9          C  0.77334081  0.22410166  0.78174220     0.10000
C10         C  0.76160738  0.25395165  0.76615020    -0.02500
C11         C  0.73829714  0.31308393  0.73532507    -0.12600
C12         C  0.76075225  0.31501842  0.76124246    -0.12600
C13         C  0.77253809  0.28580617  0.77721530     0.10200
C14         C  0.79510794  0.28741893  0.80386569    -0.10700
C15         C  0.80625887  0.25785243  0.81908763    -0.04600
C16         C  0.79581261  0.22642276  0.80854762    -0.10700
H17         H  0.73226899  0.16633165  0.73578871     0.07500
H18         H  0.77038432  0.16963683  0.78212183     0.07500
H19         H  0.72984778  0.33632323  0.72388473     0.07700
H20         H  0.76872401  0.33960443  0.76888342     0.07700
H21         H  0.67631007  0.24713698  0.66697018     0.04100
H22         H  0.82400470  0.25931030  0.83889953     0.04100
Zr23       Zr  0.49969801  0.45170900  0.55135601     2.17500
O24         O  0.49964334  0.44222094  0.62103711    -0.51200
O25         O  0.50060434  0.39309251  0.53110450    -0.74400
O26         O  0.45374962  0.43264439  0.57363334    -0.81200
O27         O  0.57943607  0.46109627  0.54606989    -0.82900
O28         O  0.41995826  0.46460326  0.54476215    -0.78600
O29         O  0.54455315  0.43367426  0.57808590    -0.90200
O30         O  0.50118171  0.39252757  0.46574838    -0.76200
O31         O  0.46957671  0.45120110  0.49634785    -0.85700
O32         O  0.52984311  0.45002575  0.49649016    -0.85300
O33         O  0.47257581  0.50258627  0.55570682    -0.72100
O34         O  0.52859861  0.50118414  0.55557353    -0.84200
Zr35       Zr  0.50150470  0.54988807  0.44729530     2.26400
Zr36       Zr  0.44320656  0.50220200  0.49924069     2.06300
Zr37       Zr  0.55813172  0.49944171  0.49959904     2.10000
Zr38       Zr  0.49975187  0.44986085  0.44169929     1.78800
O39         O  0.59286876  0.53188860  0.53549257    -0.93000
O40         O  0.45807141  0.42386681  0.41337717    -0.40800
O41         O  0.52870702  0.49918681  0.44331060    -0.77500
O42         O  0.47256567  0.50053766  0.44300519    -0.96200
O43         O  0.47149171  0.55170334  0.50217459    -0.89500
O44         O  0.53166071  0.55032820  0.50235396    -0.92300
C45         C  0.50134302  0.37752527  0.49867062     1.01400
C46         C  0.57069340  0.43998626  0.57148333     1.14400
C47         C  0.42794961  0.44123505  0.56799683     1.05200
O48         O  0.40769258  0.47104769  0.46315788    -0.94500
O49         O  0.42133364  0.54055129  0.45338841    -0.90200
O50         O  0.45615405  0.57112227  0.42501335    -0.83400
C51         C  0.43007639  0.56379872  0.43052662     1.11800
O52         O  0.50299190  0.54401653  0.62695641    -0.96400
Zr53       Zr  0.50152988  0.55209765  0.55706747     1.88900
O54         O  0.50367555  0.60829432  0.46739256    -0.73100
O55         O  0.40968680  0.53717823  0.53389089    -0.52400
O56         O  0.46130152  0.57772772  0.58918085    -0.97000
O57         O  0.54295152  0.57884548  0.58544518    -0.54200
O58         O  0.49940938  0.60964996  0.53286982    -0.73600
C59         C  0.50146753  0.62395302  0.49963943     0.98700
O60         O  0.50046967  0.55900200  0.37745219    -0.62400
O61         O  0.59335862  0.46697059  0.46475861    -0.57200
O62         O  0.54726232  0.56585174  0.42167218    -0.93900
O63         O  0.58110761  0.53507604  0.45198077    -0.92300
O64         O  0.53980408  0.42397556  0.40943926    -0.92700
O65         O  0.49874561  0.45685078  0.37175283    -0.91500
C66         C  0.57305756  0.55717200  0.42723167     1.17600
H67         H  0.54168549  0.43027406  0.49682737     0.33500
H68         H  0.46112739  0.50156297  0.41994449     0.44400
H69         H  0.54415427  0.56952237  0.50183355     0.37900
H70         H  0.46111059  0.50210304  0.57872252     0.34400
H71         H  0.46531097  0.40382335  0.39974559     0.26200
H72         H  0.39152330  0.52503195  0.53197746     0.32100
H73         H  0.44934926  0.58637639  0.56789353     0.38000
H74         H  0.53264586  0.40207929  0.40012848     0.32500
H75         H  0.61092842  0.46970267  0.47993772     0.31400
H76         H  0.61078823  0.52836223  0.52143252     0.33000
H77         H  0.55046911  0.59395565  0.56516433     0.32000
H78         H  0.49870697  0.48145462  0.36766765     0.36000
H79         H  0.51591415  0.54497272  0.36705823     0.28700
H80         H  0.49315677  0.41877249  0.62457067     0.33000
H81         H  0.50424861  0.56682766  0.63814096     0.35800
H82         H  0.58796594  0.44318978  0.46860948     0.28400
H83         H  0.48316446  0.54760549  0.36825443     0.41300
H84         H  0.41382547  0.47244178  0.43585741     0.31400
H85         H  0.44747747  0.41463298  0.43564102     0.39000
H86         H  0.55707955  0.56065520  0.58761999     0.30800
H87         H  0.41523527  0.53522082  0.56139727     0.30900
H88         H  0.48411121  0.45626286  0.63115479     0.31200
Zr89       Zr  0.50139382  0.05014210  0.54545719     2.17500
O90         O  0.49946204  0.06155816  0.61460899    -0.51200
O91         O  0.50023282  0.10822264  0.52323819    -0.74400
O92         O  0.54662820  0.07031285  0.56947053    -0.81200
O93         O  0.42164602  0.03957135  0.53852095    -0.82900
O94         O  0.58169666  0.03879142  0.54346468    -0.78600
O95         O  0.45607534  0.06729795  0.57114264    -0.90200
O96         O  0.50637890  0.10847279  0.45805595    -0.76200
O97         O  0.53333261  0.04966971  0.49253439    -0.85700
O98         O  0.47290015  0.05149139  0.48882029    -0.85300
O99         O  0.52838245  0.99943744  0.55317065    -0.72100
O100        O  0.47227312  0.00086285  0.54878610    -0.84200
Zr101      Zr  0.50250305  0.95102859  0.44420926     2.26400
Zr102      Zr  0.55973772  0.99882723  0.49891020     2.06300
Zr103      Zr  0.44415401  0.00230485  0.49145482     2.10000
Zr104      Zr  0.50487393  0.05060126  0.43597443     1.78800
O105        O  0.40698879  0.97131988  0.52444815    -0.93000
O106        O  0.54666327  0.07511809  0.40631866    -0.40800
O107        O  0.47543335  0.00159983  0.43710369    -0.77500
O108        O  0.53211265  0.00001711  0.44065947    -0.96200
O109        O  0.53093527  0.94972930  0.50081350    -0.89500
O110        O  0.47063726  0.95149085  0.49718932    -0.92300
C111        C  0.50326578  0.12330964  0.49063456     1.01400
C112        C  0.43002542  0.06061334  0.56432048     1.14400
C113        C  0.57276335  0.06277146  0.56513192     1.05200
O114        O  0.59838983  0.02720055  0.46609431    -0.94500
O115        O  0.58208963  0.95835420  0.45577365    -0.90200
O116        O  0.54769515  0.92795246  0.42590157    -0.83400
C117        C  0.57359706  0.93493458  0.43297845     1.11800
O118        O  0.48916438  0.96173817  0.62129670    -0.96400
Zr119      Zr  0.49920236  0.95006357  0.55358102     1.88900
O120        O  0.50178781  0.89278401  0.46556642    -0.73100
O121        O  0.59064285  0.96465619  0.53928281    -0.52400
O122        O  0.53839933  0.92998461  0.59286317    -0.97000
O123        O  0.45868802  0.91803554  0.57674136    -0.54200
O124        O  0.50571735  0.89244856  0.53106591    -0.73600
C125        C  0.50459147  0.87756605  0.49815060     0.98700
O126        O  0.50627274  0.94259380  0.37451320    -0.62400
O127        O  0.41184501  0.03626286  0.45292164    -0.57200
O128        O  0.45765474  0.93298301  0.41722301    -0.93900
O129        O  0.42301507  0.96409067  0.44458889    -0.92300
O130        O  0.46572372  0.07709065  0.40188754    -0.92700
O131        O  0.50674276  0.04169993  0.36639793    -0.91500
C132        C  0.43163847  0.94097662  0.42151811     1.17600
H133        H  0.46123536  0.07134860  0.48822278     0.33500
H134        H  0.54431249  0.99856294  0.41836936     0.44400
H135        H  0.45827799  0.93217804  0.49639694     0.37900
H136        H  0.53898929  0.00040668  0.57698685     0.34400
H137        H  0.53977175  0.09565301  0.39317258     0.26200
H138        H  0.60944150  0.97525263  0.53676243     0.32100
H139        H  0.53239848  0.90752864  0.60202903     0.38000
H140        H  0.45599629  0.09090456  0.42150847     0.32500
H141        H  0.39283725  0.02832051  0.46045145     0.31400
H142        H  0.39008819  0.97418895  0.50791975     0.33000
H143        H  0.45452529  0.90125905  0.55645045     0.32000
H144        H  0.49945039  0.01864643  0.36267752     0.36000
H145        H  0.49007747  0.95483913  0.36315087     0.28700
H146        H  0.50659883  0.08476842  0.61767867     0.33000
H147        H  0.49003764  0.93975523  0.63467286     0.35800
H148        H  0.41315048  0.05915394  0.46384551     0.28400
H149        H  0.52287861  0.95597873  0.36651935     0.41300
H150        H  0.59056680  0.03358174  0.44057063     0.31400
H151        H  0.55799966  0.08357566  0.42830218     0.39000
H152        H  0.44272711  0.93399777  0.57537230     0.30800
H153        H  0.58482128  0.96948701  0.56616451     0.30900
H154        H  0.51415931  0.04707209  0.62630720     0.31200
C155        C  0.29228180  0.28109601  0.68841533    -0.10700
C156        C  0.30501554  0.25088191  0.67781724    -0.04600
C157        C  0.29435161  0.21983731  0.68971450    -0.10700
C158        C  0.26989178  0.21869335  0.71308399     0.10200
C159        C  0.25693578  0.24918681  0.72480870    -0.02500
C160        C  0.26826973  0.28054589  0.71265771     0.10000
C161        C  0.25505684  0.31034353  0.72455277    -0.12500
C162        C  0.23127197  0.30947995  0.74822608    -0.12500
C163        C  0.21961915  0.27877865  0.76043950     0.10000
C164        C  0.23239691  0.24830394  0.74834981    -0.02500
C165        C  0.25785250  0.18800073  0.72456196    -0.12600
C166        C  0.23366859  0.18713968  0.74742959    -0.12600
C167        C  0.22064267  0.21694456  0.75966623     0.10200
C168        C  0.19601971  0.21632585  0.78272920    -0.10700
C169        C  0.18373335  0.24655224  0.79430560    -0.04600
C170        C  0.19524217  0.27762669  0.78395982    -0.10700
H171        H  0.26301131  0.33461687  0.71558696     0.07500
H172        H  0.22186660  0.33312905  0.75656126     0.07500
H173        H  0.26700810  0.16434361  0.71576605     0.07700
H174        H  0.22517884  0.16285792  0.75539669     0.07700
H175        H  0.32368961  0.25155607  0.65971379     0.04100
H176        H  0.16506108  0.24587846  0.81239585     0.04100
Zr177      Zr  0.00149242  0.45148493  0.94860498     2.17500
O178        O  0.99820149  0.44409371  0.87876377    -0.51200
O179        O  0.00125029  0.39249984  0.96768094    -0.74400
O180        O  0.04620505  0.43283056  0.92151011    -0.81200
O181        O  0.92178153  0.46562760  0.95637900    -0.82900
O182        O  0.08161241  0.45809524  0.95523211    -0.78600
O183        O  0.95532625  0.43482852  0.92562653    -0.90200
O184        O  0.00127118  0.39022601  0.03319145    -0.76200
O185        O  0.03228563  0.44841902  0.00277870    -0.85700
O186        O  0.97193051  0.45023514  0.00413941    -0.85300
O187        O  0.03038146  0.50088269  0.94443080    -0.72100
O188        O  0.97396832  0.50212118  0.94650889    -0.84200
Zr189      Zr  0.00464084  0.54757043  0.05419428     2.26400
Zr190      Zr  0.06056131  0.49808184  0.99992028     2.06300
Zr191      Zr  0.94526607  0.50111579  0.00350342     2.10000
Zr192      Zr  0.00264801  0.44738895  0.05803034     1.78800
O193        O  0.91015603  0.53571411  0.97089507    -0.93000
O194        O  0.04313048  0.41936257  0.08701796    -0.40800
O195        O  0.97563463  0.49833530  0.05871532    -0.77500
O196        O  0.03175597  0.49667549  0.05678649    -0.96200
O197        O  0.03391322  0.54892502  0.99843452    -0.89500
O198        O  0.97370835  0.55029270  0.00007661    -0.92300
C199        C  0.00113707  0.37618742  0.99977694     1.01400
C200        C  0.92959853  0.44320599  0.93204234     1.14400
C201        C  0.07236549  0.43797052  0.92914965     1.05200
O202        O  0.09667955  0.46793332  0.03615980    -0.94500
O203        O  0.08423062  0.53702565  0.04340005    -0.90200
O204        O  0.05068471  0.56637817  0.07611767    -0.83400
C205        C  0.07639175  0.55914078  0.06811275     1.11800
O206        O  0.00593877  0.54310218  0.87475404    -0.96400
Zr207      Zr  0.00295485  0.55140301  0.94447622     1.88900
O208        O  0.00370541  0.60625476  0.03474759    -0.73100
O209        O  0.09466818  0.52871977  0.96079905    -0.52400
O210        O  0.04385118  0.58064825  0.91829237    -0.97000
O211        O  0.96233146  0.57601777  0.91170410    -0.54200
O212        O  0.00105454  0.60836791  0.96932508    -0.73600
C213        C  0.00204108  0.62242319  0.00268305     0.98700
O214        O  0.00680179  0.55496402  0.12420168    -0.62400
O215        O  0.91127559  0.46742654  0.03931545    -0.57200
O216        O  0.96015334  0.56694762  0.08059153    -0.93900
O217        O  0.92435579  0.53851898  0.05148379    -0.92300
O218        O  0.96026977  0.42375780  0.08709388    -0.92700
O219        O  0.00419241  0.45205319  0.12815217    -0.91500
C220        C  0.93389458  0.56052166  0.07533281     1.17600
H221        H  0.95950841  0.43104928  0.00384611     0.33500
H222        H  0.04356296  0.49675589  0.07961567     0.44400
H223        H  0.96184728  0.56991853  0.00101372     0.37900
H224        H  0.04149859  0.50027601  0.92098242     0.34400
H225        H  0.03592560  0.39719663  0.09548058     0.26200
H226        H  0.11247915  0.51599520  0.96369996     0.32100
H227        H  0.03639527  0.60221551  0.90831008     0.38000
H228        H  0.96670697  0.40299497  0.10019448     0.32500
H229        H  0.91552884  0.47186489  0.06687095     0.31400
H230        H  0.89205317  0.52958625  0.98327697     0.33000
H231        H  0.95160342  0.58759419  0.93225950     0.32000
H232        H  0.00675078  0.47633953  0.13304853     0.36000
H233        H  0.99068477  0.54193496  0.13452132     0.28700
H234        H  0.00470753  0.42088992  0.87378784     0.33000
H235        H  0.00538576  0.56586447  0.86320431     0.35800
H236        H  0.89291381  0.47855232  0.03467157     0.28400
H237        H  0.02351154  0.54202839  0.13279357     0.41300
H238        H  0.09012646  0.46826756  0.06331327     0.31400
H239        H  0.05570510  0.41424135  0.06499207     0.39000
H240        H  0.95036203  0.55662250  0.90456910     0.30800
H241        H  0.08882569  0.52487122  0.93367911     0.30900
H242        H  0.01307425  0.45871795  0.86775455     0.31200
Zr243      Zr  0.99913774  0.94947438  0.04959534     2.17500
O244        O  0.00136474  0.93768394  0.11873100    -0.51200
O245        O  0.99735930  0.89104386  0.02961773    -0.74400
O246        O  0.95318652  0.93175548  0.07343648    -0.81200
O247        O  0.07912137  0.96207607  0.04586504    -0.82900
O248        O  0.91875145  0.95859815  0.03973173    -0.78600
O249        O  0.04438901  0.93217095  0.07538869    -0.90200
O250        O  0.99921648  0.88992778  0.96394941    -0.76200
O251        O  0.96955618  0.94831548  0.99413867    -0.85700
O252        O  0.03003107  0.94856564  0.99544421    -0.85300
O253        O  0.97107388  0.99932895  0.05439752    -0.72100
O254        O  0.02729127  0.99951328  0.05403550    -0.84200
Zr255      Zr  0.99966242  0.04779873  0.94628011     2.26400
Zr256      Zr  0.94218568  0.99867220  0.99756381     2.06300
Zr257      Zr  0.05732372  0.99909017  0.99829742     2.10000
Zr258      Zr  0.00050850  0.94757333  0.94022538     1.78800
O259        O  0.09220792  0.03201795  0.03334289    -0.93000
O260        O  0.96134252  0.92208691  0.90536968    -0.40800
O261        O  0.02809503  0.99808828  0.94181379    -0.77500
O262        O  0.97200194  0.99743269  0.94169953    -0.96200
O263        O  0.96955919  0.04860730  0.00083981    -0.89500
O264        O  0.02953416  0.04895420  0.00157372    -0.92300
C265        C  0.99801042  0.87555050  0.99717381     1.01400
C266        C  0.07040712  0.93994632  0.07017922     1.14400
C267        C  0.92714237  0.93759234  0.06547893     1.05200
O268        O  0.90513039  0.97165527  0.96012642    -0.94500
O269        O  0.91989323  0.03932059  0.95483959    -0.90200
O270        O  0.95434670  0.06752632  0.92299699    -0.83400
C271        C  0.92829295  0.06142494  0.93037304     1.11800
O272        O  0.99297322  0.04182147  0.12559621    -0.96400
Zr273      Zr  0.99913081  0.04939645  0.05610322     1.88900
O274        O  0.99880519  0.10639882  0.96721411    -0.73100
O275        O  0.91135383  0.03249521  0.03804719    -0.52400
O276        O  0.95805949  0.08003587  0.07939526    -0.97000
O277        O  0.04019268  0.07023930  0.09102945    -0.54200
O278        O  0.00125101  0.10686135  0.03280115    -0.73600
C279        C  0.00015625  0.12172628  0.99989128     0.98700
O280        O  0.99852843  0.05567920  0.87624587    -0.62400
O281        O  0.09227923  0.96716194  0.96227737    -0.57200
O282        O  0.04497931  0.06642200  0.92232227    -0.93900
O283        O  0.07992549  0.03712447  0.95214462    -0.92300
O284        O  0.04367765  0.92244103  0.91555041    -0.92700
O285        O  0.00309896  0.95266512  0.87016107    -0.91500
C286        C  0.07105981  0.05964064  0.92829278     1.17600
H287        H  0.04199973  0.92905970  0.99608119     0.33500
H288        H  0.96059096  0.99818547  0.91854499     0.44400
H289        H  0.04155538  0.06849148  0.00143635     0.37900
H290        H  0.95953565  0.99840505  0.07738895     0.34400
H291        H  0.96892711  0.90063491  0.89541334     0.26200
H292        H  0.89204597  0.02708379  0.02909427     0.32100
H293        H  0.96562333  0.10103501  0.09064420     0.38000
H294        H  0.03747468  0.90155617  0.90261194     0.32500
H295        H  0.11051866  0.97300084  0.97452360     0.31400
H296        H  0.11029418  0.02717019  0.02023542     0.33000
H297        H  0.03366103  0.09099482  0.10384873     0.32000
H298        H  0.00174783  0.97708342  0.86510798     0.36000
H299        H  0.01582834  0.04473265  0.86642620     0.28700
H300        H  0.99363176  0.91473364  0.12182062     0.33000
H301        H  0.99298191  0.06464846  0.13684563     0.35800
H302        H  0.08905498  0.94344367  0.96963593     0.28400
H303        H  0.98313718  0.04089133  0.86706924     0.41300
H304        H  0.91361099  0.96784834  0.93437747     0.31400
H305        H  0.94786486  0.91530819  0.92578494     0.39000
H306        H  0.05331949  0.07814974  0.07073120     0.30800
H307        H  0.91270815  0.02262886  0.06426820     0.30900
H308        H  0.98712156  0.95262519  0.13054752     0.31200
C309        C  0.29223584  0.78169831  0.31127598    -0.10700
C310        C  0.30327664  0.75098194  0.32364953    -0.04600
C311        C  0.29240683  0.72053405  0.31033227    -0.10700
C312        C  0.26938508  0.72049629  0.28436658     0.10200
C313        C  0.25784874  0.75151552  0.27170103    -0.02500
C314        C  0.26929939  0.78224990  0.28517446     0.10000
C315        C  0.25754303  0.81269402  0.27225449    -0.12500
C316        C  0.23516611  0.81299775  0.24614159    -0.12500
C317        C  0.22358395  0.78287064  0.23234837     0.10000
C318        C  0.23501926  0.75181456  0.24518176    -0.02500
C319        C  0.25765779  0.69035023  0.27075921    -0.12600
C320        C  0.23505730  0.69062297  0.24498239    -0.12600
C321        C  0.22356906  0.72105285  0.23167316     0.10200
C322        C  0.20063062  0.72168844  0.20559971    -0.10700
C323        C  0.18992066  0.75240101  0.19285588    -0.04600
C324        C  0.20084328  0.78281948  0.20595410    -0.10700
H325        H  0.26550233  0.83659267  0.28234369     0.07500
H326        H  0.22693242  0.83706689  0.23690247     0.07500
H327        H  0.26582019  0.66627425  0.28009378     0.07700
H328        H  0.22666173  0.66673447  0.23555601     0.07700
H329        H  0.32138667  0.75078520  0.34288072     0.04100
H330        H  0.17231513  0.75261985  0.17274572     0.04100
C331        C  0.70466795  0.71360284  0.29668483    -0.10700
C332        C  0.69255970  0.74320618  0.31029322    -0.04600
C333        C  0.70412773  0.77457392  0.30170421    -0.10700
C334        C  0.72840807  0.77666968  0.27812242     0.10200
C335        C  0.74114766  0.74666527  0.26450826    -0.02500
C336        C  0.72921160  0.71499072  0.27381282     0.10000
C337        C  0.74218729  0.68559074  0.26032006    -0.12500
C338        C  0.76684023  0.68716353  0.23862412    -0.12500
C339        C  0.77917579  0.71820987  0.22928231     0.10000
C340        C  0.76604626  0.74827957  0.24193704    -0.02500
C341        C  0.74044746  0.80775054  0.26816658    -0.12600
C342        C  0.76460409  0.80936066  0.24526904    -0.12600
C343        C  0.77777669  0.77992423  0.23209055     0.10200
C344        C  0.80243999  0.78115783  0.20931617    -0.10700
C345        C  0.81557048  0.75134533  0.19794886    -0.04600
C346        C  0.80435414  0.72001425  0.20762531    -0.10700
H347        H  0.73347419  0.66107565  0.26672736     0.07500
H348        H  0.77617547  0.66378235  0.22922368     0.07500
H349        H  0.73125088  0.83107134  0.27801787     0.07700
H350        H  0.77309267  0.83387714  0.23830460     0.07700
H351        H  0.67388262  0.74177521  0.32833298     0.04100
H352        H  0.83457774  0.75255774  0.18056156     0.04100
C353        C  0.90575596  0.91823697  0.08754965    -0.11800
C354        C  0.87876567  0.93109925  0.09697545     0.03600
C355        C  0.86061749  0.91243468  0.12056259    -0.12400
C356        C  0.86829797  0.88055823  0.13392633     0.18500
C357        C  0.89414501  0.86660175  0.12217349    -0.09400
C358        C  0.91286623  0.88570782  0.10011035    -0.02400
H359        H  0.84024766  0.92271588  0.12829737     0.05000
C360        C  0.84824172  0.86094382  0.15742980     0.20500
H361        H  0.93284929  0.87466682  0.09188367     0.10200
C362        C  0.82325491  0.84963153  0.14018914    -0.15800
C363        C  0.80630859  0.82602454  0.15892504     0.03200
C364        C  0.81483632  0.81275899  0.19481890    -0.11100
C365        C  0.83838675  0.82638470  0.21367458    -0.01100
C366        C  0.85467553  0.85113081  0.19559452    -0.06300
H367        H  0.81762057  0.85799944  0.11136414     0.06200
H368        H  0.84463763  0.81690943  0.24179686     0.09600
Br369      Br  0.90380038  0.82066018  0.13278955    -0.06000
Br370      Br  0.86490924  0.97369214  0.07941234    -0.02900
Br371      Br  0.77260390  0.81118154  0.13353314    -0.00100
Br372      Br  0.88545701  0.87079627  0.22361748    -0.04400
C373        C  0.18718954  0.81356565  0.19100861    -0.11800
C374        C  0.16617741  0.83008951  0.21246667     0.03600
C375        C  0.14873255  0.85366818  0.19428333    -0.12400
C376        C  0.15180379  0.86068383  0.15475329     0.18500
C377        C  0.17362196  0.84530061  0.13378118    -0.09400
C378        C  0.19119012  0.82200297  0.15202050    -0.02400
H379        H  0.13185669  0.86532669  0.21049100     0.05000
C380        C  0.13058953  0.88157199  0.13491127     0.20500
H381        H  0.20691144  0.80885566  0.13515486     0.10200
C382        C  0.13710546  0.91476934  0.12500718    -0.15800
C383        C  0.11788984  0.93455413  0.10428889     0.03200
C384        C  0.09153874  0.92093458  0.09307375    -0.11100
C385        C  0.08507871  0.88769707  0.10373315    -0.01100
C386        C  0.10430313  0.86807953  0.12435831    -0.06300
H387        H  0.15731481  0.92524543  0.13329292     0.06200
H388        H  0.06515582  0.87655523  0.09528926     0.09600
Br389      Br  0.17835384  0.85283005  0.07936677    -0.06000
Br390      Br  0.15884112  0.81882778  0.26545603    -0.02900
Br391      Br  0.12873580  0.98010832  0.09397820    -0.00100
Br392      Br  0.09415181  0.82254073  0.13618318    -0.04400
C393        C  0.00011579  0.33872247  0.99867224    -0.11800
C394        C  0.01134895  0.31967357  0.96776708     0.03600
C395        C  0.00962374  0.28450869  0.96849689    -0.12400
C396        C  0.99686692  0.26750218  0.99943153     0.18500
C397        C  0.98568721  0.28629902  0.03020697    -0.09400
C398        C  0.98742554  0.32141085  0.02967778    -0.02400
H399        H  0.01871937  0.27023958  0.94499429     0.05000
C400        C  0.99682467  0.23017920  0.99988484     0.20500
H401        H  0.97842838  0.33526435  0.05356902     0.10200
C402        C  0.01415897  0.21321629  0.02634767    -0.15800
C403        C  0.01572264  0.17810385  0.02670712     0.03200
C404        C  0.99987147  0.15906798  0.99984200    -0.11100
C405        C  0.98258253  0.17618229  0.97324671    -0.01100
C406        C  0.98079134  0.21133372  0.97332831    -0.06300
H407        H  0.02683617  0.22745850  0.04659743     0.06200
H408        H  0.96988049  0.16213334  0.95285019     0.09600
Br409      Br  0.96705129  0.26522797  0.07307540    -0.06000
Br410      Br  0.03081865  0.33950729  0.92471501    -0.02900
Br411      Br  0.04118674  0.15810756  0.06327895    -0.00100
Br412      Br  0.95520424  0.23242661  0.93781636    -0.04400
C413        C  0.00051141  0.65973191  0.00374966    -0.11800
C414        C  0.01236398  0.67911696  0.03402359     0.03600
C415        C  0.01083656  0.71422772  0.03256165    -0.12400
C416        C  0.99742519  0.73066403  0.00176843     0.18500
C417        C  0.98516119  0.71159194  0.97206029    -0.09400
C418        C  0.98685520  0.67656098  0.97312699    -0.02400
H419        H  0.02034094  0.72887329  0.05549942     0.05000
C420        C  0.99711193  0.76776968  0.00063225     0.20500
H421        H  0.97727587  0.66242332  0.94983543     0.10200
C422        C  0.02120038  0.78495226  0.98792202    -0.15800
C423        C  0.02173400  0.82007267  0.98670880     0.03200
C424        C  0.99786162  0.83853374  0.99816048    -0.11100
C425        C  0.97386883  0.82134682  0.01140466    -0.01100
C426        C  0.97337351  0.78615944  0.01269340    -0.06300
H427        H  0.03970951  0.77097290  0.97919485     0.06200
H428        H  0.95551066  0.83531761  0.02072156     0.09600
Br429      Br  0.96618091  0.73241355  0.92924183    -0.06000
Br430      Br  0.03211567  0.65994429  0.07733868    -0.02900
Br431      Br  0.05607420  0.84186305  0.97152711    -0.00100
Br432      Br  0.94027746  0.76405400  0.03197182    -0.04400
C433        C  0.81947114  0.68985780  0.19370560    -0.11800
C434        C  0.81193523  0.67441248  0.15864035     0.03600
C435        C  0.82887258  0.64889407  0.14344538    -0.12400
C436        C  0.85353443  0.63873984  0.16264382     0.18500
C437        C  0.86037672  0.65318632  0.19857292    -0.09400
C438        C  0.84333794  0.67855436  0.21388150    -0.02400
H439        H  0.82365865  0.63825627  0.11554061     0.05000
C440        C  0.87410292  0.61761209  0.14179756     0.20500
H441        H  0.84927957  0.69036697  0.24087099     0.10200
C442        C  0.89701688  0.63355839  0.12411515    -0.15800
C443        C  0.91658870  0.61537982  0.10257026     0.03200
C444        C  0.91334570  0.58034884  0.09802086    -0.11100
C445        C  0.89021125  0.56433974  0.11564160    -0.01100
C446        C  0.87079542  0.58269021  0.13775772    -0.06300
H447        H  0.89948484  0.66050857  0.12674054     0.05800
H448        H  0.88752105  0.53745354  0.11277140     0.09600
Br449      Br  0.89350170  0.64001368  0.22665198    -0.06000
Br450      Br  0.77998554  0.68936906  0.12923296    -0.02900
Br451      Br  0.94619735  0.64048945  0.07818138    -0.00100
Br452      Br  0.84071204  0.55919432  0.16303300    -0.04400
C453        C  0.09841424  0.57784424  0.08891548    -0.11800
C454        C  0.11553087  0.60144827  0.06979528     0.03600
C455        C  0.13417008  0.62141566  0.09109757    -0.12400
C456        C  0.13715597  0.61707831  0.13124799     0.18500
C457        C  0.12116587  0.59194883  0.14993521    -0.09400
C458        C  0.10153457  0.57311762  0.12887183    -0.02400
H459        H  0.14604308  0.64080756  0.07631770     0.05000
C460        C  0.15518990  0.64073782  0.15337678     0.20500
H461        H  0.08880132  0.55451276  0.14366407     0.10200
C462        C  0.14289788  0.65976331  0.18305223    -0.15800
C463        C  0.15834403  0.68434534  0.20246273     0.03200
C464        C  0.18627318  0.69118107  0.19137918    -0.11100
C465        C  0.19898400  0.67166781  0.16262224    -0.01100
C466        C  0.18378453  0.64629925  0.14389969    -0.06300
H467        H  0.12095884  0.65601018  0.19059909     0.06200
H468        H  0.22051394  0.67682479  0.15400846     0.09600
Br469      Br  0.12614041  0.58151837  0.20376121    -0.06000
Br470      Br  0.11339097  0.60812983  0.01492029    -0.02900
Br471      Br  0.14042964  0.70861151  0.24354543    -0.00100
Br472      Br  0.20310526  0.61996439  0.10587884    -0.04400
C473        C  0.18112311  0.30798772  0.79945070    -0.11800
C474        C  0.15453246  0.31793665  0.78553074     0.03600
C475        C  0.13887006  0.34206471  0.80553000    -0.12400
C476        C  0.14968995  0.35758324  0.83890219     0.18500
C477        C  0.17721564  0.34903460  0.85133514    -0.09400
C478        C  0.19249371  0.32414625  0.83188833    -0.02400
H479        H  0.11777713  0.34795756  0.79558751     0.05000
C480        C  0.13109690  0.38013400  0.86200295     0.20500
H481        H  0.21300028  0.31668091  0.84275866     0.10200
C482        C  0.12624690  0.37251521  0.90118463    -0.15800
C483        C  0.10808079  0.39203447  0.92366773     0.03200
C484        C  0.09325735  0.41882541  0.90672481    -0.11100
C485        C  0.09780440  0.42657759  0.86764938    -0.01100
C486        C  0.11683581  0.40784369  0.84539251    -0.06300
H487        H  0.13643011  0.35099313  0.91434059     0.06200
H488        H  0.08667369  0.44744874  0.85450500     0.09600
Br489      Br  0.19507024  0.37056094  0.89454397    -0.06000
Br490      Br  0.13874902  0.29854940  0.73962829    -0.02900
Br491      Br  0.10338853  0.38064666  0.97721072    -0.00100
Br492      Br  0.12318235  0.42199584  0.79301387    -0.04400
C493        C  0.18260662  0.18495949  0.79694983    -0.11800
C494        C  0.19256635  0.16880637  0.83054213     0.03600
C495        C  0.17624482  0.14394953  0.84845004    -0.12400
C496        C  0.14979711  0.13487765  0.83349602     0.18500
C497        C  0.14048218  0.14991009  0.79867488    -0.09400
C498        C  0.15689148  0.17469346  0.78074040    -0.02400
H499        H  0.18339823  0.13328074  0.87558016     0.05000
C500        C  0.13038254  0.11458584  0.85786712     0.20500
H501        H  0.14888429  0.18725225  0.75515469     0.10200
C502        C  0.10581278  0.13007580  0.87141060    -0.15800
C503        C  0.08681877  0.11301169  0.89512762     0.03200
C504        C  0.09202252  0.07926054  0.90575883    -0.11100
C505        C  0.11728793  0.06410060  0.89360797    -0.01100
C506        C  0.13653319  0.08155421  0.87013519    -0.06300
H507        H  0.10154787  0.15600136  0.86384634     0.06200
H508        H  0.12189446  0.03842337  0.90185514     0.09600
Br509      Br  0.10475708  0.13896035  0.77568163    -0.06000
Br510      Br  0.22691533  0.18240676  0.85522402    -0.02900
Br511      Br  0.05517150  0.13840887  0.91373741    -0.00100
Br512      Br  0.17057854  0.05903501  0.85538490    -0.04400
C513        C  0.68992136  0.80411751  0.31868366    -0.11800
C514        C  0.69250443  0.81110723  0.35844092     0.03600
C515        C  0.67473712  0.83468033  0.37564516    -0.12400
C516        C  0.65393918  0.85111009  0.35389791     0.18500
C517        C  0.65183242  0.84489093  0.31392806    -0.09400
C518        C  0.66992391  0.82162925  0.29655000    -0.02400
H519        H  0.67635457  0.83922458  0.40644104     0.05000
C520        C  0.63337162  0.87258603  0.37412414     0.20500
H521        H  0.66735627  0.81580791  0.26616959     0.10200
C522        C  0.63613450  0.90760253  0.37244995    -0.15800
C523        C  0.61719286  0.92839690  0.39211974     0.03200
C524        C  0.59490381  0.91408722  0.41347074    -0.11100
C525        C  0.59210177  0.87901119  0.41486952    -0.01100
C526        C  0.61131354  0.85826885  0.39581597    -0.06300
H527        H  0.65305983  0.91874600  0.35577835     0.06200
H528        H  0.57502013  0.86770309  0.43113075     0.09600
Br529      Br  0.62295700  0.86523131  0.28285586    -0.06000
Br530      Br  0.71878764  0.78755299  0.39082756    -0.02900
Br531      Br  0.62163776  0.97607345  0.38700732    -0.00100
Br532      Br  0.60655512  0.81052558  0.39997503    -0.04400
C533        C  0.40990113  0.92225861  0.39886002    -0.11800
C534        C  0.41543852  0.89102666  0.38063762     0.03600
C535        C  0.39369837  0.87383511  0.36190637    -0.12400
C536        C  0.36622926  0.88655475  0.36100004     0.18500
C537        C  0.36055719  0.91768760  0.37824312    -0.09400
C538        C  0.38227848  0.93534608  0.39664530    -0.02400
H539        H  0.39799037  0.84947884  0.34931754     0.05000
C540        C  0.34356785  0.86459234  0.34629731     0.20500
H541        H  0.37729017  0.95920778  0.40989993     0.10200
C542        C  0.32550435  0.84923852  0.37312523    -0.15800
C543        C  0.30758892  0.82316661  0.36190682     0.03200
C544        C  0.30736589  0.81243753  0.32317539    -0.11100
C545        C  0.32438830  0.82889140  0.29595680    -0.01100
C546        C  0.34250800  0.85474349  0.30724842    -0.06300
H547        H  0.32645448  0.85635704  0.40331170     0.06200
H548        H  0.32444363  0.82058701  0.26615082     0.09600
Br549      Br  0.32338208  0.93667767  0.37780713    -0.06000
Br550      Br  0.45112580  0.86820093  0.38201077    -0.02900
Br551      Br  0.28488553  0.80190908  0.40074568    -0.00100
Br552      Br  0.36617203  0.87487945  0.26871978    -0.04400
C553        C  0.40859423  0.07965608  0.58712786    -0.11800
C554        C  0.38071928  0.06804268  0.59350125     0.03600
C555        C  0.36124305  0.08831893  0.61307919    -0.12400
C556        C  0.36887060  0.12008946  0.62690920     0.18500
C557        C  0.39677091  0.13125730  0.62196342    -0.09400
C558        C  0.41628681  0.11108812  0.60256644    -0.02400
H559        H  0.33985645  0.07942189  0.61716006     0.05000
C560        C  0.34708638  0.14223096  0.64395656     0.20500
H561        H  0.43748548  0.12061480  0.59868710     0.10200
C562        C  0.34644759  0.14776203  0.68405181    -0.15800
C563        C  0.32774290  0.17120518  0.70006184     0.03200
C564        C  0.30952057  0.18962040  0.67575053    -0.11100
C565        C  0.30933911  0.18289415  0.63596217    -0.01100
C566        C  0.32778299  0.15934217  0.62004654    -0.06300
H567        H  0.36109028  0.13455665  0.70273295     0.06200
H568        H  0.29562277  0.19715993  0.61697328     0.09600
Br569      Br  0.40884651  0.17467551  0.63936324    -0.06000
Br570      Br  0.36787806  0.02439882  0.57815705    -0.02900
Br571      Br  0.32896194  0.17885303  0.75477423    -0.00100
Br572      Br  0.32727036  0.15313815  0.56507821    -0.04400
C573        C  0.50328612  0.16037607  0.49055586    -0.11800
C574        C  0.48019763  0.17880532  0.50472791     0.03600
C575        C  0.48117551  0.21394229  0.50511369    -0.12400
C576        C  0.50489066  0.23134197  0.49129452     0.18500
C577        C  0.52803004  0.21283885  0.47710733    -0.09400
C578        C  0.52690412  0.17767478  0.47636948    -0.02400
H579        H  0.46321365  0.22781273  0.51594352     0.05000
C580        C  0.50506471  0.26863970  0.49295149     0.20500
H581        H  0.54485824  0.16372949  0.46563311     0.10200
C582        C  0.50390531  0.28452299  0.52906036    -0.15800
C583        C  0.50273587  0.31962441  0.53218639     0.03200
C584        C  0.50270509  0.33989211  0.49829481    -0.11100
C585        C  0.50392248  0.32352708  0.46217566    -0.01100
C586        C  0.50483942  0.28854015  0.45928545    -0.06300
H587        H  0.50376358  0.26938081  0.55513667     0.06200
H588        H  0.50376183  0.33791594  0.43557198     0.09600
Br589      Br  0.56223832  0.23419992  0.46055312    -0.06000
Br590      Br  0.44619727  0.15717128  0.52149775    -0.02900
Br591      Br  0.50086670  0.33709733  0.58389140    -0.00100
Br592      Br  0.50408404  0.26939415  0.40841458    -0.04400
C593        C  0.50189685  0.66106889  0.49836274    -0.11800
C594        C  0.48018668  0.68046364  0.51488193     0.03600
C595        C  0.48163897  0.71557533  0.51362312    -0.12400
C596        C  0.50448049  0.73196675  0.49601737     0.18500
C597        C  0.52603227  0.71262228  0.47913220    -0.09400
C598        C  0.52450342  0.67748076  0.48014111    -0.02400
H599        H  0.46478188  0.73021720  0.52627607     0.05000
C600        C  0.50522712  0.76921370  0.49541185     0.20500
H601        H  0.54122052  0.66289053  0.46705242     0.10200
C602        C  0.52447171  0.78639006  0.51907282    -0.15800
C603        C  0.52488940  0.82160565  0.52024498     0.03200
C604        C  0.50569078  0.84029608  0.49748747    -0.11100
C605        C  0.48682939  0.82293373  0.47336844    -0.01100
C606        C  0.48641349  0.78781158  0.47226149    -0.06300
H607        H  0.53918319  0.77230304  0.53678390     0.06200
H608        H  0.47193154  0.83677187  0.45577877     0.09600
Br609      Br  0.55757349  0.73313522  0.45368076    -0.06000
Br610      Br  0.44724660  0.66034842  0.53721293    -0.02900
Br611      Br  0.55309089  0.84265734  0.55178668    -0.00100
Br612      Br  0.46003358  0.76630958  0.43824867    -0.04400
C613        C  0.69138632  0.68186269  0.30902952    -0.11800
C614        C  0.66871987  0.66808082  0.28817053     0.03600
C615        C  0.65199346  0.64321733  0.30518033    -0.12400
C616        C  0.65741769  0.63224636  0.34307003     0.18500
C617        C  0.68142419  0.64423749  0.36270268    -0.09400
C618        C  0.69824475  0.66890273  0.34553495    -0.02400
H619        H  0.63362098  0.63400913  0.28984966     0.05000
C620        C  0.63574010  0.61238628  0.36346746     0.20500
H621        H  0.71560236  0.67963266  0.36175155     0.10200
C622        C  0.64060500  0.57856881  0.37247397    -0.15800
C623        C  0.62038945  0.55973609  0.39260366     0.03200
C624        C  0.59486883  0.57501238  0.40440132    -0.11100
C625        C  0.59006936  0.60879934  0.39470496    -0.01100
C626        C  0.61015452  0.62741899  0.37449744    -0.06300
H627        H  0.66013111  0.56677923  0.36362263     0.06200
H628        H  0.57077636  0.62111449  0.40357900     0.09600
Br629      Br  0.69027347  0.63059957  0.41453770    -0.06000
Br630      Br  0.65848498  0.68464346  0.23797091    -0.02900
Br631      Br  0.62834322  0.51303504  0.40080036    -0.00100
Br632      Br  0.60202351  0.67377052  0.36386745    -0.04400
C633        C  0.30714047  0.68963183  0.32276742    -0.11800
C634        C  0.32788202  0.67488511  0.29920640     0.03600
C635        C  0.34544839  0.64989105  0.31436191    -0.12400
C636        C  0.34288809  0.63972960  0.35303505     0.18500
C637        C  0.32146586  0.65359988  0.37615446    -0.09400
C638        C  0.30366219  0.67826372  0.36084957    -0.02400
H639        H  0.36224071  0.63979909  0.29666621     0.05000
C640        C  0.36547346  0.61923366  0.37052533     0.20500
H641        H  0.28812907  0.68999873  0.37934277     0.10200
C642        C  0.39018796  0.63548027  0.38236782    -0.15800
C643        C  0.41159705  0.61797452  0.40150296     0.03200
C644        C  0.40848355  0.58324705  0.40899751    -0.11100
C645        C  0.38376778  0.56692026  0.39640943    -0.01100
C646        C  0.36240215  0.58462362  0.37715918    -0.06300
H647        H  0.39249057  0.66223793  0.37755376     0.06200
H648        H  0.38105109  0.54027197  0.40153679     0.09600
Br649      Br  0.31772012  0.64214095  0.42980961    -0.06000
Br650      Br  0.33501170  0.69082642  0.24774649    -0.02900
Br651      Br  0.44325511  0.64388131  0.41917273    -0.00100
Br652      Br  0.32940578  0.56083101  0.36051597    -0.04400
C653        C  0.40597646  0.42187640  0.58871287    -0.11800
C654        C  0.38180690  0.43713747  0.60483201     0.03600
C655        C  0.36095018  0.41728272  0.62228576    -0.12400
C656        C  0.36386986  0.38231572  0.62423131     0.18500
C657        C  0.38823937  0.36716983  0.60902473    -0.09400
C658        C  0.40904797  0.38690393  0.59164012    -0.02400
H659        H  0.34245750  0.42913447  0.63451353     0.05000
C660        C  0.34152777  0.36155246  0.64205657     0.20500
H661        H  0.42748070  0.37473430  0.57962854     0.10200
C662        C  0.32294026  0.34388947  0.61800816    -0.15800
C663        C  0.30495468  0.31940515  0.63328484     0.03200
C664        C  0.30538878  0.31229930  0.67324075    -0.11100
C665        C  0.32267610  0.33153135  0.69760627    -0.01100
C666        C  0.34062873  0.35614078  0.68227598    -0.06300
H667        H  0.32343132  0.34801399  0.58703914     0.06200
H668        H  0.32339802  0.32604909  0.72828423     0.09600
Br669      Br  0.39399389  0.31951701  0.61139648    -0.06000
Br670      Br  0.37697386  0.48490328  0.60622120    -0.02900
Br671      Br  0.28140323  0.29476080  0.59823579    -0.00100
Br672      Br  0.36526256  0.37981645  0.71674155    -0.04400
C673        C  0.81076985  0.19688226  0.82426803    -0.11800
C674        C  0.81142997  0.19042101  0.86433021     0.03600
C675        C  0.82940257  0.16572237  0.87898599    -0.12400
C676        C  0.84725546  0.14777191  0.85431503     0.18500
C677        C  0.84608818  0.15358687  0.81416864    -0.09400
C678        C  0.82786115  0.17802077  0.79944204    -0.02400
H679        H  0.83029100  0.16141078  0.90991048     0.05000
C680        C  0.86812074  0.12479523  0.87157351     0.20500
H681        H  0.82785373  0.18332022  0.76869809     0.10200
C682        C  0.85902625  0.09452159  0.88793191    -0.15800
C683        C  0.87797292  0.07315746  0.90693147     0.03200
C684        C  0.90688036  0.08215327  0.90974528    -0.11100
C685        C  0.91569915  0.11269154  0.89299666    -0.01100
C686        C  0.89663306  0.13400006  0.87444997    -0.06300
H687        H  0.83695218  0.08762497  0.88614792     0.06200
H688        H  0.93747716  0.12068941  0.89518989     0.09600
Br689      Br  0.86973339  0.12983639  0.77860487    -0.06000
Br690      Br  0.78915734  0.21570805  0.90024037    -0.02900
Br691      Br  0.86237686  0.03230099  0.92737474    -0.00100
Br692      Br  0.91020844  0.17643653  0.85567354    -0.04400
C693        C  0.80924756  0.31887550  0.81571946    -0.11800
C694        C  0.83382535  0.32953184  0.79650060     0.03600
C695        C  0.85190224  0.35258090  0.81416427    -0.12400
C696        C  0.84582047  0.36524338  0.85098758     0.18500
C697        C  0.82025689  0.35649621  0.86906029    -0.09400
C698        C  0.80221270  0.33326393  0.85142661    -0.02400
H699        H  0.87142391  0.35946464  0.79995738     0.05000
C700        C  0.86731324  0.38541114  0.87127839     0.20500
H701        H  0.78360766  0.32475900  0.86672801     0.10200
C702        C  0.86232316  0.41950995  0.87834327    -0.15800
C703        C  0.88204246  0.43898119  0.89841445     0.03200
C704        C  0.90766677  0.42435672  0.91086871    -0.11100
C705        C  0.91255155  0.39019145  0.90349521    -0.01100
C706        C  0.89256961  0.37066326  0.88434027    -0.06300
H707        H  0.84287485  0.43092871  0.86841828     0.06200
H708        H  0.93177211  0.37830755  0.91357638     0.09600
Br709      Br  0.81064919  0.37306017  0.91943685    -0.06000
Br710      Br  0.84474430  0.31090406  0.74771436    -0.02900
Br711      Br  0.87285998  0.48532529  0.90663225    -0.00100
Br712      Br  0.90020773  0.32359206  0.87872136    -0.04400
C713        C  0.69177140  0.18709679  0.68788929    -0.11800
C714        C  0.66730037  0.17537213  0.70660008     0.03600
C715        C  0.64938912  0.15248327  0.68797356    -0.12400
C716        C  0.65560833  0.14073219  0.65071334     0.18500
C717        C  0.68086736  0.15107594  0.63283805    -0.09400
C718        C  0.69867979  0.17412468  0.65140415    -0.02400
H719        H  0.63001825  0.14478804  0.70199805     0.05000
C720        C  0.63442626  0.12021815  0.62957230     0.20500
H721        H  0.71703869  0.18358317  0.63628101     0.10200
C722        C  0.61076185  0.13615317  0.61354055    -0.15800
C723        C  0.59070860  0.11808115  0.59221213     0.03200
C724        C  0.59392763  0.08305409  0.58684854    -0.11100
C725        C  0.61779549  0.06721736  0.60285825    -0.01100
C726        C  0.63786855  0.08546454  0.62409708    -0.06300
H727        H  0.60817081  0.16300217  0.61701854     0.06200
H728        H  0.62070658  0.04044435  0.59923030     0.09600
Br729      Br  0.69048054  0.13670987  0.58162481    -0.06000
Br730      Br  0.65648890  0.19234432  0.75625514    -0.02900
Br731      Br  0.56061521  0.14333303  0.56888537    -0.00100
Br732      Br  0.66963360  0.06205080  0.64542631    -0.04400
C733        C  0.59196190  0.42046518  0.59380123    -0.11800
C734        C  0.62017303  0.43139986  0.59913080     0.03600
C735        C  0.63955691  0.41067757  0.61819333    -0.12400
C736        C  0.63154223  0.37912263  0.63219665     0.18500
C737        C  0.60345118  0.36845494  0.62796865    -0.09400
C738        C  0.58397636  0.38906263  0.60908543    -0.02400
H739        H  0.66113258  0.41908512  0.62185782     0.05000
C740        C  0.65285912  0.35710130  0.65011533     0.20500
H741        H  0.56263842  0.37988760  0.60535960     0.10200
C742        C  0.65142653  0.35039410  0.68990157    -0.15800
C743        C  0.66913848  0.32645030  0.70678657     0.03200
C744        C  0.68885511  0.30932882  0.68372793    -0.11100
C745        C  0.69119836  0.31720990  0.64439794    -0.01100
C746        C  0.67337371  0.34090135  0.62745213    -0.06300
H747        H  0.63567469  0.36277665  0.70746311     0.06200
H748        H  0.70608059  0.30371424  0.62649638     0.09600
Br749      Br  0.59106704  0.32512946  0.64558958    -0.06000
Br750      Br  0.63394208  0.47440750  0.58257302    -0.02900
Br751      Br  0.66405127  0.31588039  0.76049807    -0.00100
Br752      Br  0.67632059  0.34803540  0.57274001    -0.04400
loop_ 
_geom_bond_atom_site_label_1 
_geom_bond_atom_site_label_2 
_geom_bond_distance 
_geom_bond_site_symmetry_2 
_ccdc_geom_bond_type 
C1            C2   1.395       .  A
C1            C6   1.418       .  A
C1          C713   1.487       .  S
C2            C3   1.395       .  A
C2           H21   1.086       .  S
C3            C4   1.410       .  A
C3          C744   1.473       .  S
C4            C5   1.417       .  A
C4           C11   1.407       .  A
C5            C6   1.425       .  A
C5           C10   1.419       .  A
C6            C7   1.403       .  A
C7            C8   1.396       .  A
C7           H17   1.083       .  S
C8            C9   1.408       .  A
C8           H18   1.082       .  S
C9           C10   1.418       .  A
C9           C16   1.415       .  A
C10          C13   1.424       .  A
C11          C12   1.393       .  A
C11          H19   1.083       .  S
C12          C13   1.403       .  A
C12          H20   1.083       .  S
C13          C14   1.413       .  A
C14          C15   1.393       .  A
C14         C693   1.480       .  S
C15          C16   1.395       .  A
C15          H22   1.086       .  S
C16         C673   1.476       .  S
Zr23         O24   2.439       .  S
Zr23         O25   2.440       .  S
Zr23         O26   2.433       .  S
Zr23         O29   2.426       .  S
Zr23         O31   2.377       .  S
Zr23         O32   2.379       .  S
Zr23         O33   2.406       .  S
Zr23         O34   2.405       .  S
O24          H80   0.991       .  S
O24          H88   0.990       .  S
O25          C45   1.284       .  A
O26          C47   1.285       .  A
O27         Zr37   2.433       .  S
O27          C46   1.284       .  A
O28         Zr36   2.435       .  S
O28          C47   1.285       .  A
O29          C46   1.285       .  A
O30         Zr38   2.429       .  S
O30          C45   1.285       .  A
O31         Zr36   2.389       .  S
O31         Zr38   2.374       .  S
O32         Zr37   2.384       .  S
O32         Zr38   2.370       .  S
O32          H67   0.967       .  S
O33         Zr36   2.397       .  S
O33         Zr53   2.403       .  S
O33          H70   0.965       .  S
O34         Zr37   2.393       .  S
O34         Zr53   2.402       .  S
Zr35         O60   2.442       .  S
Zr35         O54   2.432       .  S
Zr35         O62   2.429       .  S
Zr35         O50   2.435       .  S
Zr35         O41   2.402       .  S
Zr35         O42   2.402       .  S
Zr35         O43   2.376       .  S
Zr35         O44   2.380       .  S
Zr36         O55   2.434       .  S
Zr36         O48   2.436       .  S
Zr36         O49   2.431       .  S
Zr36         O42   2.395       .  S
Zr36         O43   2.387       .  S
Zr37         O39   2.434       .  S
Zr37         O61   2.436       .  S
Zr37         O63   2.430       .  S
Zr37         O41   2.393       .  S
Zr37         O44   2.387       .  S
Zr38         O64   2.436       .  S
Zr38         O65   2.435       .  S
Zr38         O40   2.436       .  S
Zr38         O41   2.397       .  S
Zr38         O42   2.397       .  S
O39          H76   0.990       .  S
O40          H71   0.990       .  S
O40          H85   0.990       .  S
O42          H68   0.965       .  S
O43         Zr53   2.372       .  S
O44         Zr53   2.375       .  S
O44          H69   0.967       .  S
C45         C584   1.501       .  S
C46         C733   1.488       .  S
C47         C653   1.481       .  S
O48          H84   0.990       .  S
O49          C51   1.285       .  A
O50          C51   1.285       .  A
C51         C644   1.483       .  S
O52         Zr53   2.439       .  S
O52          H81   0.990       .  S
Zr53         O56   2.435       .  S
Zr53         O57   2.440       .  S
Zr53         O58   2.441       .  S
O54          C59   1.284       .  A
O55          H72   0.990       .  S
O55          H87   0.990       .  S
O56          H73   0.990       .  S
O57          H77   0.990       .  S
O57          H86   0.990       .  S
O58          C59   1.285       .  A
C59         C593   1.479       .  S
O60          H79   0.990       .  S
O60          H83   0.990       .  S
O61          H75   0.990       .  S
O61          H82   0.990       .  S
O62          C66   1.285       .  A
O63          C66   1.284       .  A
O64          H74   0.990       .  S
O65          H78   0.990       .  S
C66         C624   1.482       .  S
Zr89         O90   2.438       .  S
Zr89         O91   2.437       .  S
Zr89         O92   2.436       .  S
Zr89         O95   2.426       .  S
Zr89         O97   2.378       .  S
Zr89         O98   2.378       .  S
Zr89         O99   2.406   1_545  S
Zr89        O100   2.402       .  S
O90         H146   0.990       .  S
O90         H154   0.990       .  S
O91         C111   1.285       .  A
O92         C113   1.285       .  A
O93        Zr103   2.453       .  S
O93         C112   1.288       .  A
O94        Zr102   2.450   1_545  S
O94         C113   1.288       .  A
O95         C112   1.285       .  A
O96        Zr104   2.432       .  S
O96         C111   1.283       .  A
O97        Zr102   2.391   1_545  S
O97        Zr104   2.375       .  S
O98        Zr103   2.388       .  S
O98        Zr104   2.377       .  S
O98         H133   0.966       .  S
O99        Zr102   2.397       .  S
O99        Zr119   2.404       .  S
O99         H136   0.965   1_565  S
O100       Zr103   2.388       .  S
O100       Zr119   2.399   1_545  S
Zr101       O126   2.442       .  S
Zr101       O120   2.433       .  S
Zr101       O128   2.430       .  S
Zr101       O116   2.418       .  S
Zr101       O107   2.401   1_565  S
Zr101       O108   2.406   1_565  S
Zr101       O109   2.376       .  S
Zr101       O110   2.377       .  S
Zr102       O121   2.436       .  S
Zr102       O114   2.434   1_565  S
Zr102       O115   2.443       .  S
Zr102       O108   2.402   1_565  S
Zr102       O109   2.386       .  S
Zr103       O105   2.435   1_545  S
Zr103       O127   2.437       .  S
Zr103       O129   2.441   1_545  S
Zr103       O107   2.397       .  S
Zr103       O110   2.390   1_545  S
Zr104       O130   2.437       .  S
Zr104       O131   2.435       .  S
Zr104       O106   2.436       .  S
Zr104       O107   2.400       .  S
Zr104       O108   2.399       .  S
O105        H142   0.990       .  S
O106        H137   0.990       .  S
O106        H151   0.990       .  S
O108        H134   0.967   1_545  S
O109       Zr119   2.368       .  S
O110       Zr119   2.373       .  S
O110        H135   0.967       .  S
C111        C573   1.477       .  S
C112        C553   1.496       .  S
C113        C724   1.491       .  S
O114        H150   0.990       .  S
O115        C117   1.287       .  A
O116        C117   1.283       .  A
C117        C524   1.474       .  S
O118       Zr119   2.437       .  S
O118        H147   0.990       .  S
Zr119       O122   2.435       .  S
Zr119       O123   2.441       .  S
Zr119       O124   2.446       .  S
O120        C125   1.285       .  A
O121        H138   0.990       .  S
O121        H153   0.990       .  S
O122        H139   0.990       .  S
O123        H143   0.990       .  S
O123        H152   0.990       .  S
O124        C125   1.286       .  A
C125        C604   1.486       .  S
O126        H145   0.990       .  S
O126        H149   0.990       .  S
O127        H141   0.990       .  S
O127        H148   0.990       .  S
O128        C132   1.283       .  A
O129        C132   1.287       .  A
O130        H140   0.990       .  S
O131        H144   0.990       .  S
C132        C533   1.494       .  S
C155        C156   1.397       .  A
C155        C160   1.415       .  A
C155        C664   1.484       .  S
C156        C157   1.397       .  A
C156        H175   1.086       .  S
C157        C158   1.416       .  A
C157        C564   1.485       .  S
C158        C159   1.422       .  A
C158        C165   1.406       .  A
C159        C160   1.422       .  A
C159        C164   1.422       .  A
C160        C161   1.406       .  A
C161        C162   1.395       .  A
C161        H171   1.082       .  S
C162        C163   1.406       .  A
C162        H172   1.083       .  S
C163        C164   1.421       .  A
C163        C170   1.415       .  A
C164        C167   1.422       .  A
C165        C166   1.395       .  A
C165        H173   1.082       .  S
C166        C167   1.405       .  A
C166        H174   1.083       .  S
C167        C168   1.415       .  A
C168        C169   1.398       .  A
C168        C493   1.485       .  S
C169        C170   1.398       .  A
C169        H176   1.085       .  S
C170        C473   1.485       .  S
Zr177       O178   2.439   1_455  S
Zr177       O179   2.439       .  S
Zr177       O180   2.437       .  S
Zr177       O183   2.421   1_455  S
Zr177       O185   2.377   1_556  S
Zr177       O186   2.380   1_456  S
Zr177       O187   2.401       .  S
Zr177       O188   2.404   1_455  S
O178        H234   0.990   1_655  S
O178        H242   0.990   1_655  S
O179        C199   1.285       .  A
O180        C201   1.284       .  A
O181       Zr191   2.429   1_556  S
O181        C200   1.284       .  A
O182       Zr190   2.438       .  S
O182        C201   1.285       .  A
O183        C200   1.285       .  A
O184       Zr192   2.437       .  S
O184        C199   1.285   1_554  A
O185       Zr190   2.391   1_554  S
O185       Zr192   2.374       .  S
O186       Zr191   2.390       .  S
O186       Zr192   2.366   1_655  S
O186        H221   0.965       .  S
O187       Zr190   2.395       .  S
O187       Zr207   2.397       .  S
O187        H224   0.968       .  S
O188       Zr191   2.398   1_556  S
O188       Zr207   2.397   1_655  S
Zr189       O214   2.442       .  S
Zr189       O208   2.431       .  S
Zr189       O216   2.427   1_455  S
Zr189       O204   2.429       .  S
Zr189       O195   2.400   1_455  S
Zr189       O196   2.403       .  S
Zr189       O197   2.379   1_554  S
Zr189       O198   2.378   1_455  S
Zr190       O209   2.436       .  S
Zr190       O202   2.436   1_556  S
Zr190       O203   2.436   1_556  S
Zr190       O196   2.397   1_556  S
Zr190       O197   2.388       .  S
Zr191       O193   2.435   1_554  S
Zr191       O215   2.435       .  S
Zr191       O217   2.445       .  S
Zr191       O195   2.392       .  S
Zr191       O198   2.381       .  S
Zr192       O218   2.436   1_455  S
Zr192       O219   2.434       .  S
Zr192       O194   2.435       .  S
Zr192       O195   2.401   1_455  S
Zr192       O196   2.400       .  S
O193        H230   0.990       .  S
O194        H225   0.990       .  S
O194        H239   0.990       .  S
O196        H222   0.967       .  S
O197       Zr207   2.374       .  S
O198       Zr207   2.373   1_654  S
O198        H223   0.964       .  S
C199        C393   1.494       .  S
C200        C704   1.477       .  S
C201        C484   1.474       .  S
O202        H238   0.990       .  S
O203        C205   1.285       .  A
O204        C205   1.284       .  A
C205        C453   1.471       .  S
O206       Zr207   2.440       .  S
O206        H235   0.990       .  S
Zr207       O210   2.436       .  S
Zr207       O211   2.438   1_455  S
Zr207       O212   2.431       .  S
O208        C213   1.283       .  A
O209        H226   0.990       .  S
O209        H241   0.990       .  S
O210        H227   0.990       .  S
O211        H231   0.990       .  S
O211        H240   0.990       .  S
O212        C213   1.285   1_556  A
C213        C413   1.489       .  S
O214        H233   0.990   1_455  S
O214        H237   0.990       .  S
O215        H229   0.990       .  S
O215        H236   0.990       .  S
O216        C220   1.284       .  A
O217        C220   1.287       .  A
O218        H228   0.990       .  S
O219        H232   0.990       .  S
C220        C444   1.482       .  S
Zr243       O244   2.438   1_655  S
Zr243       O245   2.431       .  S
Zr243       O246   2.435       .  S
Zr243       O249   2.422   1_655  S
Zr243       O251   2.375   1_554  S
Zr243       O252   2.380   1_654  S
Zr243       O253   2.398       .  S
Zr243       O254   2.404   1_655  S
O244        H300   0.990   1_455  S
O244        H308   0.990   1_455  S
O245        C265   1.283   1_554  A
O246        C267   1.286       .  A
O247       Zr257   2.436   1_554  S
O247        C266   1.285       .  A
O248       Zr256   2.429   1_554  S
O248        C267   1.283       .  A
O249        C266   1.285       .  A
O250       Zr258   2.437   1_655  S
O250        C265   1.284       .  A
O251       Zr256   2.393       .  S
O251       Zr258   2.375   1_655  S
O252       Zr257   2.394       .  S
O252       Zr258   2.367       .  S
O252        H287   0.963       .  S
O253       Zr256   2.394   1_554  S
O253       Zr273   2.398   1_565  S
O253        H290   0.967       .  S
O254       Zr257   2.399   1_554  S
O254       Zr273   2.396   1_465  S
Zr255       O280   2.442       .  S
Zr255       O274   2.446       .  S
Zr255       O282   2.420   1_655  S
Zr255       O270   2.424       .  S
Zr255       O261   2.402   1_645  S
Zr255       O262   2.402   1_545  S
Zr255       O263   2.369   1_556  S
Zr255       O264   2.379   1_656  S
Zr256       O275   2.436   1_566  S
Zr256       O268   2.433       .  S
Zr256       O269   2.430   1_565  S
Zr256       O262   2.397       .  S
Zr256       O263   2.378   1_566  S
Zr257       O259   2.434   1_566  S
Zr257       O281   2.436       .  S
Zr257       O283   2.446   1_565  S
Zr257       O261   2.394       .  S
Zr257       O264   2.388   1_566  S
Zr258       O284   2.436       .  S
Zr258       O285   2.435       .  S
Zr258       O260   2.435   1_455  S
Zr258       O261   2.400       .  S
Zr258       O262   2.404   1_455  S
O259        H296   0.990       .  S
O260        H291   0.990       .  S
O260        H305   0.990       .  S
O262        H288   0.966       .  S
O263       Zr273   2.369       .  S
O264       Zr273   2.376   1_455  S
O264        H289   0.964       .  S
C265        C424   1.475       .  S
C266        C384   1.483       .  S
C267        C353   1.485       .  S
O268        H304   0.990       .  S
O269        C271   1.283       .  A
O270        C271   1.285       .  A
C271        C684   1.489       .  S
O272       Zr273   2.440       .  S
O272        H301   0.990       .  S
Zr273       O276   2.438       .  S
Zr273       O277   2.436   1_655  S
Zr273       O278   2.427   1_655  S
O274        C279   1.288   1_655  A
O275        H292   0.990       .  S
O275        H307   0.989       .  S
O276        H293   0.990       .  S
O277        H297   0.989       .  S
O277        H306   0.990       .  S
O278        C279   1.283   1_554  A
C279        C404   1.488   1_455  S
O280        H299   0.990   1_655  S
O280        H303   0.990       .  S
O281        H295   0.990       .  S
O281        H302   0.990       .  S
O282        C286   1.282       .  A
O283        C286   1.287       .  A
O284        H294   0.990       .  S
O285        H298   0.990       .  S
C286        C504   1.485       .  S
C309        C310   1.397       .  A
C309        C314   1.413       .  A
C309        C544   1.478       .  S
C310        C311   1.397       .  A
C310        H329   1.085       .  S
C311        C312   1.413       .  A
C311        C633   1.478       .  S
C312        C313   1.420       .  A
C312        C319   1.405       .  A
C313        C314   1.419       .  A
C313        C318   1.418       .  A
C314        C315   1.407       .  A
C315        C316   1.392       .  A
C315        H325   1.082       .  S
C316        C317   1.404       .  A
C316        H326   1.083       .  S
C317        C318   1.421       .  A
C317        C324   1.412       .  A
C318        C321   1.420       .  A
C319        C320   1.393       .  A
C319        H327   1.083       .  S
C320        C321   1.405       .  A
C320        H328   1.082       .  S
C321        C322   1.412       .  A
C322        C323   1.395       .  A
C322        C464   1.478       .  S
C323        C324   1.394       .  A
C323        H330   1.086       .  S
C324        C373   1.477       .  S
C331        C332   1.395       .  A
C331        C336   1.409       .  A
C331        C613   1.475       .  S
C332        C333   1.396       .  A
C332        H351   1.086       .  S
C333        C334   1.414       .  A
C333        C513   1.480       .  S
C334        C335   1.421       .  A
C334        C341   1.405       .  A
C335        C336   1.419       .  A
C335        C340   1.418       .  A
C336        C337   1.405       .  A
C337        C338   1.392       .  A
C337        H347   1.083       .  S
C338        C339   1.405       .  A
C338        H348   1.083       .  S
C339        C340   1.421       .  A
C339        C346   1.412       .  A
C340        C343   1.418       .  A
C341        C342   1.395       .  A
C341        H349   1.083       .  S
C342        C343   1.406       .  A
C342        H350   1.083       .  S
C343        C344   1.412       .  A
C344        C345   1.399       .  A
C344        C364   1.476       .  S
C345        C346   1.397       .  A
C345        H352   1.085       .  S
C346        C433   1.481       .  S
C353        C354   1.418       .  A
C353        C358   1.407       .  A
C354        C355   1.399       .  A
C354       Br370   1.917       .  S
C355        C356   1.398       .  A
C355        H359   1.084       .  S
C356        C357   1.407       .  A
C356        C360   1.475       .  S
C357        C358   1.396       .  A
C357       Br369   1.921       .  S
C358        H361   1.084       .  S
C360        C362   1.400       .  A
C360        C366   1.409       .  A
C362        C363   1.396       .  A
C362        H367   1.083       .  S
C363        C364   1.407       .  A
C363       Br371   1.916       .  S
C364        C365   1.402       .  A
C365        C366   1.399       .  A
C365        H368   1.083       .  S
C366       Br372   1.919       .  S
C373        C374   1.408       .  A
C373        C378   1.402       .  A
C374        C375   1.399       .  A
C374       Br390   1.918       .  S
C375        C376   1.403       .  A
C375        H379   1.083       .  S
C376        C377   1.406       .  A
C376        C380   1.473       .  S
C377        C378   1.396       .  A
C377       Br389   1.919       .  S
C378        H381   1.084       .  S
C380        C382   1.400       .  A
C380        C386   1.405       .  A
C382        C383   1.400       .  A
C382        H387   1.084       .  S
C383        C384   1.416       .  A
C383       Br391   1.919       .  S
C384        C385   1.407       .  A
C385        C386   1.395       .  A
C385        H388   1.084       .  S
C386       Br392   1.920       .  S
C393        C394   1.418       .  A
C393        C398   1.409   1_456  A
C394        C395   1.403       .  A
C394       Br410   1.921       .  S
C395        C396   1.403   1_455  A
C395        H399   1.084       .  S
C396        C397   1.408   1_556  A
C396        C400   1.487       .  S
C397        C398   1.401       .  A
C397       Br409   1.919       .  S
C398        H401   1.083       .  S
C400        C402   1.402   1_656  A
C400        C406   1.409       .  A
C402        C403   1.401       .  A
C402        H407   1.084       .  S
C403        C404   1.416   1_454  A
C403       Br411   1.919       .  S
C404        C405   1.406       .  A
C405        C406   1.403       .  A
C405        H408   1.084       .  S
C406       Br412   1.918       .  S
C413        C414   1.418       .  A
C413        C418   1.409   1_454  A
C414        C415   1.401       .  A
C414       Br430   1.922       .  S
C415        C416   1.401   1_455  A
C415        H419   1.084       .  S
C416        C417   1.405   1_554  A
C416        C420   1.479       .  S
C417        C418   1.398       .  A
C417       Br429   1.919       .  S
C418        H421   1.083       .  S
C420        C422   1.402   1_654  A
C420        C426   1.408       .  A
C422        C423   1.400       .  A
C422        H427   1.084       .  S
C423        C424   1.408   1_455  A
C423       Br431   1.918       .  S
C424        C425   1.404   1_556  A
C425        C426   1.403       .  A
C425        H428   1.084       .  S
C426       Br432   1.919       .  S
C433        C434   1.407       .  A
C433        C438   1.402       .  A
C434        C435   1.400       .  A
C434       Br450   1.918       .  S
C435        C436   1.403       .  A
C435        H439   1.083       .  S
C436        C437   1.408       .  A
C436        C440   1.479       .  S
C437        C438   1.400       .  A
C437       Br449   1.918       .  S
C438        H441   1.083       .  S
C440        C442   1.399       .  A
C440        C446   1.407       .  A
C442        C443   1.395       .  A
C442        H447   1.084       .  S
C443        C444   1.413       .  A
C443       Br451   1.919       .  S
C444        C445   1.407       .  A
C445        C446   1.405       .  A
C445        H448   1.083       .  S
C446       Br452   1.917       .  S
C453        C454   1.406       .  A
C453        C458   1.402       .  A
C454        C455   1.399       .  A
C454       Br470   1.918       .  S
C455        C456   1.406       .  A
C455        H459   1.083       .  S
C456        C457   1.411       .  A
C456        C460   1.485       .  S
C457        C458   1.400       .  A
C457       Br469   1.921       .  S
C458        H461   1.084       .  S
C460        C462   1.405       .  A
C460        C466   1.413       .  A
C462        C463   1.396       .  A
C462        H467   1.083       .  S
C463        C464   1.406       .  A
C463       Br471   1.921       .  S
C464        C465   1.401       .  A
C465        C466   1.401       .  A
C465        H468   1.083       .  S
C466       Br472   1.919       .  S
C473        C474   1.406       .  A
C473        C478   1.402       .  A
C474        C475   1.400       .  A
C474       Br490   1.918       .  S
C475        C476   1.407       .  A
C475        H479   1.083       .  S
C476        C477   1.415       .  A
C476        C480   1.493       .  S
C477        C478   1.402       .  A
C477       Br489   1.920       .  S
C478        H481   1.083       .  S
C480        C482   1.407       .  A
C480        C486   1.415       .  A
C482        C483   1.399       .  A
C482        H487   1.083       .  S
C483        C484   1.404       .  A
C483       Br491   1.919       .  S
C484        C485   1.403       .  A
C485        C486   1.404       .  A
C485        H488   1.084       .  S
C486       Br492   1.920       .  S
C493        C494   1.408       .  A
C493        C498   1.403       .  A
C494        C495   1.400       .  A
C494       Br510   1.916       .  S
C495        C496   1.403       .  A
C495        H499   1.083       .  S
C496        C497   1.414       .  A
C496        C500   1.486       .  S
C497        C498   1.401       .  A
C497       Br509   1.921       .  S
C498        H501   1.084       .  S
C500        C502   1.401       .  A
C500        C506   1.412       .  A
C502        C503   1.395       .  A
C502        H507   1.084       .  S
C503        C504   1.415       .  A
C503       Br511   1.923       .  S
C504        C505   1.407       .  A
C505        C506   1.405       .  A
C505        H508   1.083       .  S
C506       Br512   1.918       .  S
C513        C514   1.409       .  A
C513        C518   1.403       .  A
C514        C515   1.397       .  A
C514       Br530   1.918       .  S
C515        C516   1.401       .  A
C515        H519   1.084       .  S
C516        C517   1.409       .  A
C516        C520   1.476       .  S
C517        C518   1.401       .  A
C517       Br529   1.918       .  S
C518        H521   1.083       .  S
C520        C522   1.402       .  A
C520        C526   1.408       .  A
C522        C523   1.401       .  A
C522        H527   1.083       .  S
C523        C524   1.410       .  A
C523       Br531   1.919       .  S
C524        C525   1.404       .  A
C525        C526   1.398       .  A
C525        H528   1.084       .  S
C526       Br532   1.920       .  S
C533        C534   1.421       .  A
C533        C538   1.412       .  A
C534        C535   1.397       .  A
C534       Br550   1.922       .  S
C535        C536   1.398       .  A
C535        H539   1.084       .  S
C536        C537   1.404       .  A
C536        C540   1.476       .  S
C537        C538   1.400       .  A
C537       Br549   1.919       .  S
C538        H541   1.083       .  S
C540        C542   1.403       .  A
C540        C546   1.408       .  A
C542        C543   1.397       .  A
C542        H547   1.084       .  S
C543        C544   1.407       .  A
C543       Br551   1.918       .  S
C544        C545   1.402       .  A
C545        C546   1.397       .  A
C545        H548   1.084       .  S
C546       Br552   1.918       .  S
C553        C554   1.418       .  A
C553        C558   1.410       .  A
C554        C555   1.404       .  A
C554       Br570   1.918       .  S
C555        C556   1.401       .  A
C555        H559   1.083       .  S
C556        C557   1.406       .  A
C556        C560   1.483       .  S
C557        C558   1.399       .  A
C557       Br569   1.920       .  S
C558        H561   1.083       .  S
C560        C562   1.405       .  A
C560        C566   1.408       .  A
C562        C563   1.404       .  A
C562        H567   1.083       .  S
C563        C564   1.410       .  A
C563       Br571   1.918       .  S
C564        C565   1.403       .  A
C565        C566   1.398       .  A
C565        H568   1.084       .  S
C566       Br572   1.918       .  S
C573        C574   1.408       .  A
C573        C578   1.403       .  A
C574        C575   1.401       .  A
C574       Br590   1.918       .  S
C575        C576   1.405       .  A
C575        H579   1.084       .  S
C576        C577   1.412       .  A
C576        C580   1.487       .  S
C577        C578   1.402       .  A
C577       Br589   1.919       .  S
C578        H581   1.084       .  S
C580        C582   1.403       .  A
C580        C586   1.407       .  A
C582        C583   1.404       .  A
C582        H587   1.084       .  S
C583        C584   1.422       .  A
C583       Br591   1.923       .  S
C584        C585   1.412       .  A
C585        C586   1.398       .  A
C585        H588   1.083       .  S
C586       Br592   1.920       .  S
C593        C594   1.410       .  A
C593        C598   1.405       .  A
C594        C595   1.401       .  A
C594       Br610   1.918       .  S
C595        C596   1.403       .  A
C595        H599   1.084       .  S
C596        C597   1.409       .  A
C596        C600   1.484       .  S
C597        C598   1.402       .  A
C597       Br609   1.918       .  S
C598        H601   1.084       .  S
C600        C602   1.404       .  A
C600        C606   1.408       .  A
C602        C603   1.404       .  A
C602        H607   1.084       .  S
C603        C604   1.413       .  A
C603       Br611   1.919       .  S
C604        C605   1.405       .  A
C605        C606   1.400       .  A
C605        H608   1.082       .  S
C606       Br612   1.919       .  S
C613        C614   1.406       .  A
C613        C618   1.401       .  A
C614        C615   1.398       .  A
C614       Br630   1.918       .  S
C615        C616   1.404       .  A
C615        H619   1.084       .  S
C616        C617   1.409       .  A
C616        C620   1.476       .  S
C617        C618   1.397       .  A
C617       Br629   1.918       .  S
C618        H621   1.084       .  S
C620        C622   1.401       .  A
C620        C626   1.407       .  A
C622        C623   1.402       .  A
C622        H627   1.084       .  S
C623        C624   1.416       .  A
C623       Br631   1.919       .  S
C624        C625   1.405       .  A
C625        C626   1.394       .  A
C625        H628   1.084       .  S
C626       Br632   1.921       .  S
C633        C634   1.408       .  A
C633        C638   1.402       .  A
C634        C635   1.399       .  A
C634       Br650   1.919       .  S
C635        C636   1.402       .  A
C635        H639   1.083       .  S
C636        C637   1.408       .  A
C636        C640   1.475       .  S
C637        C638   1.398       .  A
C637       Br649   1.918       .  S
C638        H641   1.084       .  S
C640        C642   1.400       .  A
C640        C646   1.405       .  A
C642        C643   1.397       .  A
C642        H647   1.084       .  S
C643        C644   1.414       .  A
C643       Br651   1.921       .  S
C644        C645   1.409       .  A
C645        C646   1.401       .  A
C645        H648   1.083       .  S
C646       Br652   1.917       .  S
C653        C654   1.414       .  A
C653        C658   1.404       .  A
C654        C655   1.402       .  A
C654       Br670   1.917       .  S
C655        C656   1.401       .  A
C655        H659   1.083       .  S
C656        C657   1.407       .  A
C656        C660   1.478       .  S
C657        C658   1.397       .  A
C657       Br669   1.920       .  S
C658        H661   1.084       .  S
C660        C662   1.401       .  A
C660        C666   1.408       .  A
C662        C663   1.398       .  A
C662        H667   1.084       .  S
C663        C664   1.410       .  A
C663       Br671   1.919       .  S
C664        C665   1.404       .  A
C665        C666   1.402       .  A
C665        H668   1.083       .  S
C666       Br672   1.917       .  S
C673        C674   1.409       .  A
C673        C678   1.402       .  A
C674        C675   1.396       .  A
C674       Br690   1.920       .  S
C675        C676   1.401       .  A
C675        H679   1.084       .  S
C676        C677   1.408       .  A
C676        C680   1.473       .  S
C677        C678   1.397       .  A
C677       Br689   1.918       .  S
C678        H681   1.084       .  S
C680        C682   1.399       .  A
C680        C686   1.404       .  A
C682        C683   1.400       .  A
C682        H687   1.084       .  S
C683        C684   1.420       .  A
C683       Br691   1.921       .  S
C684        C685   1.410       .  A
C685        C686   1.395       .  A
C685        H688   1.083       .  S
C686       Br692   1.920       .  S
C693        C694   1.407       .  A
C693        C698   1.404       .  A
C694        C695   1.397       .  A
C694       Br710   1.918       .  S
C695        C696   1.402       .  A
C695        H699   1.084       .  S
C696        C697   1.408       .  A
C696        C700   1.475       .  S
C697        C698   1.400       .  A
C697       Br709   1.921       .  S
C698        H701   1.083       .  S
C700        C702   1.401       .  A
C700        C706   1.408       .  A
C702        C703   1.399       .  A
C702        H707   1.083       .  S
C703        C704   1.414       .  A
C703       Br711   1.919       .  S
C704        C705   1.405       .  A
C705        C706   1.394       .  A
C705        H708   1.084       .  S
C706       Br712   1.920       .  S
C713        C714   1.409       .  A
C713        C718   1.404       .  A
C714        C715   1.403       .  A
C714       Br730   1.918       .  S
C715        C716   1.404       .  A
C715        H719   1.083       .  S
C716        C717   1.410       .  A
C716        C720   1.487       .  S
C717        C718   1.403       .  A
C717       Br729   1.919       .  S
C718        H721   1.083       .  S
C720        C722   1.402       .  A
C720        C726   1.408       .  A
C722        C723   1.402       .  A
C722        H727   1.084       .  S
C723        C724   1.417       .  A
C723       Br731   1.922       .  S
C724        C725   1.408       .  A
C725        C726   1.405       .  A
C725        H728   1.083       .  S
C726       Br732   1.918       .  S
C733        C734   1.419       .  A
C733        C738   1.409       .  A
C734        C735   1.399       .  A
C734       Br750   1.919       .  S
C735        C736   1.399       .  A
C735        H739   1.084       .  S
C736        C737   1.406       .  A
C736        C740   1.474       .  S
C737        C738   1.396       .  A
C737       Br749   1.921       .  S
C738        H741   1.083       .  S
C740        C742   1.403       .  A
C740        C746   1.408       .  A
C742        C743   1.397       .  A
C742        H747   1.083       .  S
C743        C744   1.408       .  A
C743       Br751   1.919       .  S
C744        C745   1.400       .  A
C745        C746   1.395       .  A
C745        H748   1.084       .  S
C746       Br752   1.918       .  S
