geometry optimzed in LAMMPS
_audit_creation_date              2020-11-30 
_audit_creation_method            'lammps2cif' 
_symmetry_space_group_name_H-M    'P1' 
_symmetry_Int_Tables_number       1 
_symmetry_cell_setting            triclinic 
loop_ 
_symmetry_equiv_pos_as_xyz 
  x,y,z 
_cell_length_a                    42.55710523 
_cell_length_b                    55.97752544530521 
_cell_length_c                    35.00010954101667 
_cell_angle_alpha                 89.98151775375679 
_cell_angle_beta                  90.01677274698027 
_cell_angle_gamma                 90.16779093702898 
loop_ 
_atom_site_label 
_atom_site_type_symbol 
_atom_site_fract_x 
_atom_site_fract_y 
_atom_site_fract_z 
_atom_site_charge 
O1          O  0.43574882  0.46300818  0.07202077    -0.75100
O2          O  0.46434048  0.43488125  0.04008377    -0.54000
C3          C  0.44275065  0.44131044  0.06352658     0.78700
O4          O  0.44292306  0.04269374  0.42081443    -0.59700
O5          O  0.46759138  0.07054333  0.45793799    -0.52700
C6          C  0.44822329  0.06437002  0.43146074     0.70700
O7          O  0.44056844  0.46216761  0.42499971    -0.74200
O8          O  0.46754436  0.43443731  0.45913591    -0.54800
C9          C  0.44671355  0.44040147  0.43439087     0.76700
O10         O  0.43520194  0.04330919  0.06863084    -0.59400
O11         O  0.46605769  0.07115827  0.03912622    -0.52500
C12         C  0.44305719  0.06499190  0.06088587     0.73300
Zr13       Zr  0.45273662  0.50303028  0.05387543     2.54700
O14         O  0.39567834  0.50224813  0.04915280    -0.79900
O15         O  0.45089637  0.00541329  0.12330514    -0.93300
Zr16       Zr  0.45895202  0.50245271  0.44000621     2.64700
O17         O  0.40225625  0.50243286  0.43036575    -0.98300
O18         O  0.46955775  0.00103137  0.37172101    -0.80400
O19         O  0.45482176  0.47987920  0.99723853    -0.83700
O20         O  0.45510350  0.02550904  0.99656777    -2.18400
O21         O  0.06191058  0.04324418  0.07795185    -0.67100
O22         O  0.03591937  0.07102283  0.04244778    -0.51700
C23         C  0.05620419  0.06492002  0.06781283     0.71700
O24         O  0.06973288  0.46133665  0.43428300    -0.60000
O25         O  0.03720261  0.43393245  0.46233864    -0.52000
C26         C  0.06068021  0.43977125  0.44122331     0.73500
O27         O  0.07146909  0.04203612  0.43380061    -0.71400
O28         O  0.03865583  0.07010092  0.45922670    -0.50100
C29         C  0.06285505  0.06375429  0.43971105     0.74800
O30         O  0.06305542  0.46268855  0.07731098    -0.66700
O31         O  0.03544907  0.43453096  0.04409120    -0.53900
C32         C  0.05651433  0.44091199  0.06841860     0.73200
Zr33       Zr  0.04525738  0.00283291  0.06132481     2.77500
O34         O  0.10206041  0.00253881  0.06980597    -0.97500
O35         O  0.03685537  0.00276253  0.13013835    -0.78300
Zr36       Zr  0.05168462  0.00198785  0.44782248     2.70100
O37         O  0.10884294  0.00105440  0.44934560    -0.79600
O38         O  0.05075621  0.00247814  0.37825714    -0.98600
Zr39       Zr  0.00155311  0.45687669  0.50147164     2.21500
Zr40       Zr  0.50226952  0.04841199  0.99994525     2.11100
O41         O  0.04920409  0.02532799  0.50422567    -2.47300
O42         O  0.04886591  0.47947034  0.50503289    -0.79300
O43         O  0.49912701  0.02642717  0.05819178    -0.71500
O44         O  0.00504181  0.47885464  0.44325493    -2.32500
O45         O  0.99878225  0.47950199  0.05912749    -2.28700
O46         O  0.50560751  0.02571998  0.44248252    -0.73300
H47         H  0.43678225  0.03565367  0.49503840     0.78700
H48         H  0.00603557  0.46829284  0.42144905     0.79800
H49         H  0.06759022  0.03541321  0.00559834     0.82000
H50         H  0.99772397  0.46921355  0.08126379     0.79600
H51         H  0.44870043  0.49858685  0.35980680     0.42600
H52         H  0.07274629  0.00597702  0.37081321     0.41600
H53         H  0.11420728  0.50286955  0.47672539     0.41300
H54         H  0.11003550  0.01512484  0.05240908     0.39200
H55         H  0.02534335  0.01776597  0.13529587     0.42400
H56         H  0.46632849  0.49346108  0.13220537     0.37100
H57         H  0.39141014  0.50194115  0.02134355     0.43300
H58         H  0.39437682  0.01575439  0.44628156     0.39700
H59         H  0.10554312  0.00900075  0.09580389     0.44600
H60         H  0.43019184  0.49855940  0.13026049     0.43300
H61         H  0.39927354  0.50787721  0.40369529     0.43500
H62         H  0.04743571  0.98560907  0.37075908     0.43800
O63         O  0.32007022  0.29274879  0.31584167    -0.75100
O64         O  0.28762545  0.32066110  0.28938200    -0.54000
C65         C  0.31154307  0.31443723  0.30956193     0.78700
O66         O  0.31147073  0.21272247  0.16883173    -0.59700
O67         O  0.28636250  0.18458702  0.20485043    -0.52700
C68         C  0.30544746  0.19091853  0.17817106     0.70700
O69         O  0.31443950  0.29342386  0.17528441    -0.74200
O70         O  0.28595126  0.32108727  0.20813426    -0.54800
C71         C  0.30749826  0.31509193  0.18428403     0.76700
O72         O  0.31797850  0.21256783  0.32045365    -0.59400
O73         O  0.28931700  0.18450276  0.28866805    -0.52500
C74         C  0.31097169  0.19075474  0.31229313     0.73300
Zr75       Zr  0.30039304  0.25259239  0.30336408     2.54700
O76         O  0.35754541  0.25166524  0.30636626    -0.79900
O77         O  0.29611512  0.25404901  0.37263655    -0.93300
Zr78       Zr  0.29689333  0.25290266  0.18972809     2.64700
O79         O  0.35402560  0.25273550  0.18546249    -0.98300
O80         O  0.29105304  0.25576854  0.12070425    -0.80400
O81         O  0.29871065  0.27571146  0.24672072    -0.83700
O82         O  0.29997903  0.22973548  0.24631109    -2.18400
O83         O  0.19118566  0.21123690  0.32388451    -0.67100
O84         O  0.21889163  0.18354834  0.29039191    -0.51700
C85         C  0.19765147  0.18952169  0.31467561     0.71700
O86         O  0.18658576  0.29195089  0.17691555    -0.60000
O87         O  0.21503002  0.32014044  0.20894971    -0.52000
C88         C  0.19347936  0.31374981  0.18517984     0.73500
O89         O  0.18556256  0.21162302  0.17998882    -0.71400
O90         O  0.21710828  0.18392675  0.20869885    -0.50100
C91         C  0.19370917  0.19001961  0.18767322     0.74800
O92         O  0.18799779  0.29165804  0.32286080    -0.66700
O93         O  0.21560828  0.31998686  0.29065676    -0.53900
C94         C  0.19398385  0.31359518  0.31420854     0.73200
Zr95       Zr  0.20770755  0.25181500  0.30781699     2.77500
O96         O  0.15076503  0.25106761  0.31503960    -0.97500
O97         O  0.21584224  0.25200510  0.37668245    -0.78300
Zr98       Zr  0.20428144  0.25194590  0.19396160     2.70100
O99         O  0.14711263  0.25212711  0.19305937    -0.79600
O100        O  0.20754139  0.25066000  0.12458146    -0.98600
Zr101      Zr  0.25140012  0.29827870  0.24931275     2.21500
Zr102      Zr  0.25300443  0.20647260  0.24852022     2.11100
O103        O  0.20568116  0.22909405  0.25085776    -2.47300
O104        O  0.20477336  0.27481169  0.25102883    -0.79300
O105        O  0.25438163  0.22870546  0.30649307    -0.71500
O106        O  0.25023569  0.27589707  0.19126340    -2.32500
O107        O  0.25378927  0.27571084  0.30705017    -2.28700
O108        O  0.25086755  0.22892535  0.19072279    -0.73300
H109        H  0.31836559  0.21966626  0.24531452     0.78700
H110        H  0.24953601  0.28632611  0.16927739     0.79800
H111        H  0.18745145  0.21886057  0.25171005     0.82000
H112        H  0.25435340  0.28604654  0.32913261     0.79600
H113        H  0.27673956  0.24245243  0.11392212     0.42600
H114        H  0.21690820  0.23490600  0.11881869     0.41600
H115        H  0.14101358  0.24944139  0.22001700     0.41300
H116        H  0.14328702  0.23954422  0.29556129     0.39200
H117        H  0.22143768  0.23531785  0.38307403     0.42400
H118        H  0.31813390  0.25335897  0.38177937     0.37100
H119        H  0.36427477  0.25019438  0.27939280     0.43300
H120        H  0.36071803  0.23885823  0.20096699     0.39700
H121        H  0.14691810  0.24303485  0.33981586     0.44600
H122        H  0.28703155  0.23838600  0.37980700     0.43300
H123        H  0.35854021  0.24805197  0.15874370     0.43500
H124        H  0.18542357  0.24917139  0.11607555     0.43800
C125        C  0.07494857  0.08385681  0.08658878    -0.11700
C126        C  0.08476167  0.10475497  0.06715032     0.03700
C127        C  0.10435779  0.12117021  0.08553069    -0.12300
C128        C  0.11485493  0.11711801  0.12286713     0.20200
C129        C  0.10496452  0.09650902  0.14247830    -0.09300
C130        C  0.08518105  0.08012404  0.12432950    -0.02300
H131        H  0.11197209  0.13704464  0.07035684     0.05100
C132        C  0.13599003  0.13477916  0.14067139     0.20600
H133        H  0.07806374  0.06420610  0.13971954     0.10300
C134        C  0.12423113  0.14963642  0.16948297    -0.15700
C135        C  0.14292853  0.16767647  0.18514734     0.03300
C136        C  0.17396986  0.17085367  0.17215471    -0.11000
C137        C  0.18602882  0.15566447  0.14395347    -0.01000
C138        C  0.16712247  0.13783512  0.12782605    -0.06200
H139        H  0.10027848  0.14739925  0.17937667     0.06300
H140        H  0.20993827  0.15799796  0.13395995     0.09700
Br141      Br  0.11892154  0.08937968  0.19332595    -0.05900
Br142      Br  0.07469817  0.11139796  0.01478104    -0.02800
Br143      Br  0.12534804  0.18716530  0.22484251     0.00000
Br144      Br  0.18458612  0.11811398  0.08833345    -0.04300
C145        C  0.08241272  0.08277290  0.42293809    -0.11700
C146        C  0.11474188  0.08463856  0.43139834     0.03700
C147        C  0.13280133  0.10261414  0.41437584    -0.12300
C148        C  0.11920744  0.11871260  0.38864374     0.18600
C149        C  0.08695114  0.11690630  0.38017585    -0.09300
C150        C  0.06869074  0.09921242  0.39775468    -0.02300
H151        H  0.15760271  0.10398586  0.42106363     0.05100
C152        C  0.13937382  0.13676690  0.37009503     0.20600
H153        H  0.04389276  0.09789251  0.39101282     0.10300
C154        C  0.15349405  0.13132546  0.33506193    -0.15700
C155        C  0.17290093  0.14790131  0.31651237     0.03300
C156        C  0.17875599  0.17047640  0.33350075    -0.11000
C157        C  0.16458642  0.17562530  0.36892112    -0.01000
C158        C  0.14506245  0.15907263  0.38712455    -0.06200
H159        H  0.14901212  0.11414940  0.32182835     0.06300
H160        H  0.16854788  0.19272434  0.38261446     0.09700
Br161      Br  0.06718914  0.13777414  0.34404482    -0.05900
Br162      Br  0.13508596  0.06390993  0.46735253    -0.02800
Br163      Br  0.18849519  0.13873294  0.26718052     0.00000
Br164      Br  0.12630126  0.16791356  0.43488219    -0.04300
C165        C  0.17451902  0.33280032  0.16700976    -0.11700
C166        C  0.16273139  0.33074216  0.12932476     0.03700
C167        C  0.14322294  0.34856549  0.11448186    -0.12300
C168        C  0.13554574  0.36872807  0.13620662     0.18600
C169        C  0.14771943  0.37110699  0.17339455    -0.09300
C170        C  0.16699480  0.35323423  0.18847764    -0.02300
H171        H  0.13434356  0.34688138  0.08558334     0.05100
C172        C  0.11526551  0.38728080  0.11922325     0.20600
H173        H  0.17563434  0.35512082  0.21743735     0.10300
C174        C  0.08278329  0.38327507  0.11640299    -0.15700
C175        C  0.06299085  0.40051711  0.10024210     0.03300
C176        C  0.07584368  0.42214190  0.08644262    -0.11000
C177        C  0.10838115  0.42602049  0.08940633    -0.01000
C178        C  0.12806135  0.40878007  0.10536662    -0.06200
H179        H  0.07278751  0.36677353  0.12717499     0.06300
H180        H  0.11867360  0.44240837  0.07858348     0.09700
Br181      Br  0.13823273  0.39828156  0.20475327    -0.05900
Br182      Br  0.17382035  0.30497969  0.09568274    -0.02800
Br183      Br  0.01861328  0.39420757  0.10001921     0.00000
Br184      Br  0.17237855  0.41508901  0.10663222    -0.04300
C185        C  0.32285906  0.17175664  0.15813060    -0.11700
C186        C  0.33165836  0.17355341  0.11924102     0.03700
C187        C  0.35089990  0.15604610  0.10292745    -0.12300
C188        C  0.36100347  0.13641728  0.12445619     0.18600
C189        C  0.35101954  0.13392968  0.16248997    -0.09300
C190        C  0.33223565  0.15153928  0.17909102    -0.02300
H191        H  0.35786041  0.15764678  0.07325679     0.05100
C192        C  0.38192718  0.11855521  0.10695463     0.20600
H193        H  0.32558462  0.14966838  0.20882579     0.10300
C194        C  0.41456542  0.12220642  0.10787847    -0.15700
C195        C  0.43513213  0.10503584  0.09306701     0.03300
C196        C  0.42288628  0.08387195  0.07694637    -0.11000
C197        C  0.39018574  0.08032780  0.07624789    -0.01000
C198        C  0.36975271  0.09743008  0.09105213    -0.06200
H199        H  0.42404750  0.13826981  0.12079847     0.06300
H200        H  0.38042749  0.06417182  0.06392089     0.09700
Br201      Br  0.36287602  0.10677763  0.19267464    -0.05900
Br202      Br  0.31671891  0.19850614  0.08626472    -0.02800
Br203      Br  0.47951193  0.11059985  0.09804681     0.00000
Br204      Br  0.32544481  0.09101361  0.08953309    -0.04300
C205        C  0.42835783  0.42119187  0.41491409    -0.11700
C206        C  0.42707615  0.39720605  0.42817225     0.03700
C207        C  0.40846878  0.38041670  0.40898142    -0.12300
C208        C  0.39097637  0.38676770  0.37670273     0.18600
C209        C  0.39230647  0.41035304  0.36315170    -0.09300
C210        C  0.41087251  0.42723484  0.38206664    -0.02300
H211        H  0.40728955  0.36224726  0.41960555     0.05100
C212        C  0.37080392  0.36860796  0.35832848     0.20600
H213        H  0.41149529  0.44525888  0.37082995     0.10300
C214        C  0.33812868  0.36994914  0.36292818    -0.15700
C215        C  0.31837620  0.35249950  0.34725955     0.03300
C216        C  0.33132184  0.33340192  0.32634833    -0.11000
C217        C  0.36409504  0.33197732  0.32213813    -0.01000
C218        C  0.38382252  0.34940635  0.33787893    -0.06200
H219        H  0.32803590  0.38438243  0.37945029     0.06300
H220        H  0.37437681  0.31733391  0.30627106     0.09700
Br221      Br  0.36948235  0.42027548  0.31861755    -0.05900
Br222      Br  0.44869236  0.38560317  0.47267608    -0.02800
Br223      Br  0.27435597  0.35442973  0.35826896     0.00000
Br224      Br  0.42831469  0.34660377  0.33016611    -0.04300
C225        C  0.42941821  0.08346714  0.41344253    -0.11700
C226        C  0.42461701  0.08463379  0.37359261     0.03700
C227        C  0.40475777  0.10208860  0.35823919    -0.12300
C228        C  0.38973461  0.11867039  0.38198425     0.18600
C229        C  0.39496199  0.11783179  0.42167759    -0.09300
C230        C  0.41471130  0.10036160  0.43706302    -0.02300
H231        H  0.40133390  0.10295145  0.32759129     0.05100
C232        C  0.36941135  0.13710132  0.36466472     0.20600
H233        H  0.41805266  0.09964904  0.46774434     0.10300
C234        C  0.33845120  0.13133780  0.35441017    -0.15700
C235        C  0.31874893  0.14839509  0.33753181     0.03300
C236        C  0.33015445  0.17181498  0.33067987    -0.11000
C237        C  0.36126125  0.17736883  0.34120356    -0.01000
C238        C  0.38083325  0.16025752  0.35772163    -0.06200
H239        H  0.32955093  0.11349044  0.35972813     0.06300
H240        H  0.37075475  0.19503310  0.33584988     0.09700
Br241      Br  0.37526554  0.13990855  0.45600177    -0.05900
Br242      Br  0.44624263  0.06400642  0.33870514    -0.02800
Br243      Br  0.27638737  0.13863847  0.32622344     0.00000
Br244      Br  0.42337613  0.16909495  0.36921590    -0.04300
C245        C  0.07875056  0.42028427  0.42370537    -0.11700
C246        C  0.06507683  0.40470730  0.39676321     0.03700
C247        C  0.08352555  0.38712638  0.37927698    -0.12300
C248        C  0.11520787  0.38417230  0.38952244     0.18600
C249        C  0.12823162  0.39889569  0.41810396    -0.09300
C250        C  0.11022171  0.41712706  0.43431499    -0.02300
H251        H  0.07316450  0.37573153  0.35763241     0.05100
C252        C  0.13466987  0.36609800  0.36968699     0.20600
H253        H  0.12060976  0.42857095  0.45588717     0.10300
C254        C  0.15931452  0.37372622  0.34605908    -0.15700
C255        C  0.17889466  0.35734012  0.32746563     0.03300
C256        C  0.17410613  0.33239383  0.33269181    -0.11000
C257        C  0.14893401  0.32501479  0.35627466    -0.01000
C258        C  0.12932033  0.34151533  0.37438479    -0.06200
H259        H  0.16334240  0.39269032  0.34207557     0.06300
H260        H  0.14422251  0.30620930  0.36081732     0.09700
Br261      Br  0.16988749  0.39381755  0.43742001    -0.05900
Br262      Br  0.02159026  0.40715600  0.38251440    -0.02800
Br263      Br  0.21111768  0.37106940  0.29570759     0.00000
Br264      Br  0.09598258  0.32958896  0.40608600    -0.04300
C265        C  0.42414641  0.42244051  0.08171533    -0.11700
C266        C  0.42444460  0.41924369  0.12158755     0.03700
C267        C  0.40511876  0.40188229  0.13816910    -0.12300
C268        C  0.38550430  0.38763168  0.11537750     0.18600
C269        C  0.38556773  0.39058408  0.07546513    -0.09300
C270        C  0.40486532  0.40795418  0.05889850    -0.02300
H271        H  0.40546186  0.39938990  0.16886569     0.05100
C272        C  0.36567484  0.36933138  0.13360323     0.20600
H273        H  0.40437105  0.41049464  0.02822557     0.10300
C274        C  0.33383119  0.37407419  0.14023914    -0.15700
C275        C  0.31424749  0.35675106  0.15664620     0.03300
C276        C  0.32671864  0.33421569  0.16670284    -0.11000
C277        C  0.35874348  0.32968549  0.15994232    -0.01000
C278        C  0.37817981  0.34703855  0.14366992    -0.06200
H279        H  0.32413021  0.39122441  0.13215723     0.06300
H280        H  0.36883462  0.31260076  0.16764789     0.09700
Br281      Br  0.35982639  0.37117785  0.04273298    -0.05900
Br282      Br  0.45175243  0.43749384  0.15413911    -0.02800
Br283      Br  0.27051846  0.36449774  0.16205729     0.00000
Br284      Br  0.42158937  0.33952556  0.13506188    -0.04300
O285        O  0.43574758  0.46300793  0.57201934    -0.75100
O286        O  0.46434119  0.43488117  0.54008459    -0.54000
C287        C  0.44275031  0.44131016  0.56352613     0.78700
O288        O  0.44292315  0.04269464  0.92081498    -0.59700
O289        O  0.46759168  0.07054415  0.95793849    -0.52700
C290        C  0.44822358  0.06437092  0.93146126     0.70700
O291        O  0.44056550  0.46216654  0.92500641    -0.74200
O292        O  0.46754585  0.43443581  0.95913648    -0.54800
C293        C  0.44671249  0.44040024  0.93439497     0.76700
O294        O  0.43520257  0.04330860  0.56863065    -0.59400
O295        O  0.46605821  0.07115786  0.53912628    -0.52500
C296        C  0.44305777  0.06499133  0.56088593     0.73300
Zr297      Zr  0.45273531  0.50303040  0.55387468     2.54700
O298        O  0.39567673  0.50224194  0.54916152    -0.79900
O299        O  0.45089521  0.00541363  0.62330456    -0.93300
Zr300      Zr  0.45895106  0.50245190  0.94000847     2.64700
O301        O  0.40225441  0.50242848  0.93037829    -0.98300
O302        O  0.46955929  0.00103141  0.87172167    -0.80400
O303        O  0.45482173  0.47988008  0.49723689    -0.83700
O304        O  0.45510365  0.02550857  0.49656740    -2.18400
O305        O  0.06191181  0.04324367  0.57795004    -0.67100
O306        O  0.03592043  0.07102240  0.54244631    -0.51700
C307        C  0.05620540  0.06491954  0.56781115     0.71700
O308        O  0.06973350  0.46133668  0.93427995    -0.60000
O309        O  0.03720575  0.43393245  0.96234035    -0.52000
C310        C  0.06068237  0.43977124  0.94122338     0.73500
O311        O  0.07146832  0.04203610  0.93380188    -0.71400
O312        O  0.03865518  0.07010092  0.95922808    -0.50100
C313        C  0.06285428  0.06375431  0.93971219     0.74800
O314        O  0.06305310  0.46268877  0.57731597    -0.66700
O315        O  0.03544946  0.43453117  0.54409274    -0.53900
C316        C  0.05651341  0.44091227  0.56842193     0.73200
Zr317      Zr  0.04525760  0.00283272  0.56132256     2.77500
O318        O  0.10206070  0.00253775  0.56980206    -0.97500
O319        O  0.03685797  0.00276178  0.63013637    -0.78300
Zr320      Zr  0.05168440  0.00198770  0.94782438     2.70100
O321        O  0.10884266  0.00105405  0.94934761    -0.79600
O322        O  0.05075632  0.00247798  0.87825902    -0.98600
Zr323      Zr  0.00155378  0.45687662  0.00146979     2.21500
Zr324      Zr  0.50226976  0.04841161  0.49994485     2.11100
O325        O  0.04920380  0.02532790  0.00422754    -2.47300
O326        O  0.04886646  0.47947048  0.00503010    -0.79300
O327        O  0.49912738  0.02642696  0.55819162    -0.71500
O328        O  0.00504300  0.47885445  0.94325302    -2.32500
O329        O  0.99878177  0.47950199  0.55912985    -2.28700
O330        O  0.50560732  0.02572067  0.94248256    -0.73300
H331        H  0.43678260  0.03565388  0.99503870     0.78700
H332        H  0.00603663  0.46829229  0.92144678     0.79800
H333        H  0.06759045  0.03541315  0.50559660     0.82000
H334        H  0.99772368  0.46921365  0.58126607     0.79600
H335        H  0.44870689  0.49849671  0.85981955     0.42600
H336        H  0.07274626  0.00597818  0.87081517     0.41600
H337        H  0.11420553  0.50286630  0.97673112     0.41300
H338        H  0.11003586  0.01512367  0.55240476     0.39200
H339        H  0.02534322  0.01776373  0.63529409     0.42400
H340        H  0.46631430  0.49345490  0.63220630     0.37100
H341        H  0.39140338  0.50203368  0.52135116     0.43300
H342        H  0.39437572  0.01574849  0.94629906     0.39700
H343        H  0.10554401  0.00899963  0.59579954     0.44600
H344        H  0.43018259  0.49857277  0.63025805     0.43300
H345        H  0.39926604  0.50790057  0.90372365     0.43500
H346        H  0.04743757  0.98560878  0.87076089     0.43800
O347        O  0.32007155  0.29274811  0.81584044    -0.75100
O348        O  0.28762665  0.32066022  0.78938047    -0.54000
C349        C  0.31154441  0.31443651  0.80956041     0.78700
O350        O  0.31147037  0.21272149  0.66883152    -0.59700
O351        O  0.28636228  0.18458597  0.70485015    -0.52700
C352        C  0.30544716  0.19091754  0.67817075     0.70700
O353        O  0.31443816  0.29342308  0.67528258    -0.74200
O354        O  0.28594978  0.32108666  0.70813198    -0.54800
C355        C  0.30749675  0.31509119  0.68428178     0.76700
O356        O  0.31797938  0.21256744  0.82045269    -0.59400
O357        O  0.28931717  0.18450224  0.78866830    -0.52500
C358        C  0.31097221  0.19075434  0.81229280     0.73300
Zr359      Zr  0.30039341  0.25259186  0.80336360     2.54700
O360        O  0.35754573  0.25166504  0.80636567    -0.79900
O361        O  0.29611532  0.25404879  0.87263613    -0.93300
Zr362      Zr  0.29689298  0.25290180  0.68972740     2.64700
O363        O  0.35402514  0.25273494  0.68545867    -0.98300
O364        O  0.29105101  0.25576746  0.62070382    -0.80400
O365        O  0.29871049  0.27571065  0.74671998    -0.83700
O366        O  0.29997935  0.22973483  0.74631064    -2.18400
O367        O  0.19118559  0.21123613  0.82388439    -0.67100
O368        O  0.21889134  0.18354768  0.79039134    -0.51700
C369        C  0.19765123  0.18952096  0.81467515     0.71700
O370        O  0.18658510  0.29195068  0.67691711    -0.60000
O371        O  0.21502989  0.32014036  0.70895025    -0.52000
C372        C  0.19347881  0.31374967  0.68518104     0.73500
O373        O  0.18556173  0.21162241  0.67999018    -0.71400
O374        O  0.21710837  0.18392617  0.70869890    -0.50100
C375        C  0.19370863  0.19001901  0.68767428     0.74800
O376        O  0.18799774  0.29165641  0.82286261    -0.66700
O377        O  0.21560845  0.31998500  0.79065825    -0.53900
C378        C  0.19398397  0.31359347  0.81421011     0.73200
Zr379      Zr  0.20770829  0.25181400  0.80781734     2.77500
O380        O  0.15076559  0.25106639  0.81503614    -0.97500
O381        O  0.21584186  0.25200276  0.87668315    -0.78300
Zr382      Zr  0.20428130  0.25194532  0.69396153     2.70100
O383        O  0.14711251  0.25212622  0.69305719    -0.79600
O384        O  0.20754398  0.25065993  0.62458146    -0.98600
Zr385      Zr  0.25140010  0.29827799  0.74931219     2.21500
Zr386      Zr  0.25300478  0.20647187  0.74852008     2.11100
O387        O  0.20568189  0.22909355  0.75085784    -2.47300
O388        O  0.20477364  0.27481071  0.75102908    -0.79300
O389        O  0.25438238  0.22870447  0.80649323    -0.71500
O390        O  0.25023546  0.27589632  0.69126286    -2.32500
O391        O  0.25378963  0.27571027  0.80704962    -2.28700
O392        O  0.25086728  0.22892454  0.69072253    -0.73300
H393        H  0.31836593  0.21966566  0.74531399     0.78700
H394        H  0.24953565  0.28632502  0.66927738     0.79800
H395        H  0.18745220  0.21886014  0.75171035     0.82000
H396        H  0.25435381  0.28604606  0.82913191     0.79600
H397        H  0.27673862  0.24245065  0.61392211     0.42600
H398        H  0.21691063  0.23490567  0.61881888     0.41600
H399        H  0.14101292  0.24944268  0.72001496     0.41300
H400        H  0.14328856  0.23954267  0.79555758     0.39200
H401        H  0.22143926  0.23531556  0.88307385     0.42400
H402        H  0.31813366  0.25335857  0.88177880     0.37100
H403        H  0.36427500  0.25019529  0.77939218     0.43300
H404        H  0.36071840  0.23885929  0.70096621     0.39700
H405        H  0.14691763  0.24303395  0.83981233     0.44600
H406        H  0.28703124  0.23838564  0.87980691     0.43300
H407        H  0.35853898  0.24804884  0.65874051     0.43500
H408        H  0.18542658  0.24917177  0.61607423     0.43800
C409        C  0.07494943  0.08385641  0.58658746    -0.11700
C410        C  0.08476213  0.10475487  0.56714944     0.03700
C411        C  0.10435744  0.12117041  0.58553048    -0.12300
C412        C  0.11485396  0.11711823  0.62286720     0.20200
C413        C  0.10496384  0.09650905  0.64247792    -0.09300
C414        C  0.08518118  0.08012378  0.62432852    -0.02300
H415        H  0.11197168  0.13704499  0.57035696     0.05100
C416        C  0.13598893  0.13477917  0.64067201     0.20600
H417        H  0.07806389  0.06420575  0.63971832     0.10300
C418        C  0.12422966  0.14963695  0.66948267    -0.15700
C419        C  0.14292739  0.16767661  0.68514761     0.03300
C420        C  0.17396921  0.17085300  0.67215622    -0.11000
C421        C  0.18602860  0.15566298  0.64395640    -0.01000
C422        C  0.16712206  0.13783391  0.62782862    -0.06200
H423        H  0.10027660  0.14740041  0.67937525     0.06300
H424        H  0.20993854  0.15799570  0.63396415     0.09700
Br425      Br  0.11892039  0.08938015  0.69332590    -0.05900
Br426      Br  0.07469874  0.11139797  0.51478012    -0.02800
Br427      Br  0.12534689  0.18716585  0.72484217     0.00000
Br428      Br  0.18458622  0.11811133  0.58833820    -0.04300
C429        C  0.08241192  0.08277295  0.92293896    -0.11700
C430        C  0.11474125  0.08463828  0.93139835     0.03700
C431        C  0.13280076  0.10261370  0.91437549    -0.12300
C432        C  0.11920666  0.11871251  0.88864410     0.18600
C433        C  0.08695007  0.11690682  0.88017749    -0.09300
C434        C  0.06868973  0.09921286  0.89775633    -0.02300
H435        H  0.15760233  0.10398501  0.92106245     0.05100
C436        C  0.13937316  0.13676658  0.87009497     0.20600
H437        H  0.04389159  0.09789330  0.89101521     0.10300
C438        C  0.15349365  0.13132478  0.83506215    -0.15700
C439        C  0.17290078  0.14790039  0.81651234     0.03300
C440        C  0.17875570  0.17047568  0.83350028    -0.11000
C441        C  0.16458587  0.17562488  0.86892041    -0.01000
C442        C  0.14506179  0.15907239  0.88712402    -0.06200
H443        H  0.14901178  0.11414857  0.82182904     0.06300
H444        H  0.16854717  0.19272403  0.88261349     0.09700
Br445      Br  0.06718740  0.13777571  0.84404847    -0.05900
Br446      Br  0.13508559  0.06390921  0.96735161    -0.02800
Br447      Br  0.18849573  0.13873109  0.76718111     0.00000
Br448      Br  0.12630038  0.16791360  0.93488131    -0.04300
C449        C  0.17451837  0.33280021  0.66701113    -0.11700
C450        C  0.16273125  0.33074232  0.62932591     0.03700
C451        C  0.14322400  0.34856621  0.61448234    -0.12300
C452        C  0.13554709  0.36872887  0.63620701     0.18600
C453        C  0.14771930  0.37110710  0.67339567    -0.09300
C454        C  0.16699396  0.35323402  0.68847915    -0.02300
H455        H  0.13434495  0.34688229  0.58558364     0.05100
C456        C  0.11526669  0.38728158  0.61922406     0.20600
H457        H  0.17563260  0.35512019  0.71743931     0.10300
C458        C  0.08278452  0.38327552  0.61640462    -0.15700
C459        C  0.06299146  0.40051745  0.60024476     0.03300
C460        C  0.07584347  0.42214254  0.58644574    -0.11000
C461        C  0.10838088  0.42602169  0.58940907    -0.01000
C462        C  0.12806190  0.40878122  0.60536786    -0.06200
H463        H  0.07278927  0.36677370  0.62717629     0.06300
H464        H  0.11867269  0.44240986  0.57858642     0.09700
Br465      Br  0.13823029  0.39828073  0.70475525    -0.05900
Br466      Br  0.17381878  0.30497898  0.59568505    -0.02800
Br467      Br  0.01861417  0.39420734  0.60002200     0.00000
Br468      Br  0.17237923  0.41509021  0.60663027    -0.04300
C469        C  0.32285882  0.17175571  0.65813021    -0.11700
C470        C  0.33165847  0.17355267  0.61924074     0.03700
C471        C  0.35090002  0.15604532  0.60292724    -0.12300
C472        C  0.36100331  0.13641632  0.62445593     0.18600
C473        C  0.35101913  0.13392867  0.66248961    -0.09300
C474        C  0.33223520  0.15153825  0.67909055    -0.02300
H475        H  0.35786080  0.15764614  0.57325670     0.05100
C476        C  0.38192720  0.11855423  0.60695462     0.20600
H477        H  0.32558397  0.14966725  0.70882523     0.10300
C478        C  0.41456551  0.12220509  0.60788008    -0.15700
C479        C  0.43513240  0.10503464  0.59306866     0.03300
C480        C  0.42288669  0.08387115  0.57694661    -0.11000
C481        C  0.39018613  0.08032716  0.57624694    -0.01000
C482        C  0.36975287  0.09742937  0.59105094    -0.06200
H483        H  0.42404750  0.13826818  0.62080111     0.06300
H484        H  0.38042802  0.06417138  0.56391905     0.09700
Br485      Br  0.36287516  0.10677656  0.69267447    -0.05900
Br486      Br  0.31671970  0.19850573  0.58626444    -0.02800
Br487      Br  0.47951219  0.11059823  0.59805014     0.00000
Br488      Br  0.32544493  0.09101311  0.58952988    -0.04300
C489        C  0.42835673  0.42119082  0.91491827    -0.11700
C490        C  0.42707567  0.39720459  0.92817503     0.03700
C491        C  0.40846929  0.38041544  0.90898225    -0.12300
C492        C  0.39097750  0.38676693  0.87670320     0.18600
C493        C  0.39230735  0.41035264  0.86315376    -0.09300
C494        C  0.41087192  0.42723433  0.88207078    -0.02300
H495        H  0.40729021  0.36224574  0.91960520     0.05100
C496        C  0.37080523  0.36860747  0.85832758     0.20600
H497        H  0.41149469  0.44525859  0.87083494     0.10300
C498        C  0.33812979  0.36994905  0.86292577    -0.15700
C499        C  0.31837736  0.35249924  0.84725722     0.03300
C500        C  0.33132317  0.33340141  0.82634672    -0.11000
C501        C  0.36409647  0.33197661  0.82213755    -0.01000
C502        C  0.38382396  0.34940548  0.83787892    -0.06200
H503        H  0.32803682  0.38438253  0.87944732     0.06300
H504        H  0.37437836  0.31733297  0.80627117     0.09700
Br505      Br  0.36948673  0.42027563  0.81861743    -0.05900
Br506      Br  0.44869073  0.38560065  0.97267941    -0.02800
Br507      Br  0.27435706  0.35442890  0.85826710     0.00000
Br508      Br  0.42831634  0.34660169  0.83016836    -0.04300
C509        C  0.42941875  0.08346811  0.91344307    -0.11700
C510        C  0.42461689  0.08463428  0.87359326     0.03700
C511        C  0.40475739  0.10208877  0.85823981    -0.12300
C512        C  0.38973482  0.11867083  0.88198470     0.18600
C513        C  0.39496296  0.11783298  0.92167783    -0.09300
C514        C  0.41471251  0.10036302  0.93706345    -0.02300
H515        H  0.40133296  0.10295122  0.82759198     0.05100
C516        C  0.36941167  0.13710151  0.86466499     0.20600
H517        H  0.41805444  0.09965091  0.96774471     0.10300
C518        C  0.33845126  0.13133801  0.85441174    -0.15700
C519        C  0.31874901  0.14839512  0.83753308     0.03300
C520        C  0.33015490  0.17181473  0.83067966    -0.11000
C521        C  0.36126197  0.17736850  0.84120203    -0.01000
C522        C  0.38083398  0.16025738  0.85772030    -0.06200
H523        H  0.32955082  0.11349082  0.85973081     0.06300
H524        H  0.37075570  0.19503254  0.83584709     0.09700
Br525      Br  0.37526683  0.13991051  0.95600098    -0.05900
Br526      Br  0.44624206  0.06400689  0.83870560    -0.02800
Br527      Br  0.27638719  0.13863865  0.82622593     0.00000
Br528      Br  0.42337736  0.16909471  0.86921214    -0.04300
C529        C  0.07875257  0.42028409  0.92370598    -0.11700
C530        C  0.06507813  0.40470713  0.89676455     0.03700
C531        C  0.08352624  0.38712606  0.87927782    -0.12300
C532        C  0.11520881  0.38417190  0.88952216     0.18600
C533        C  0.12823349  0.39889559  0.91810277    -0.09300
C534        C  0.11022397  0.41712698  0.93431446    -0.02300
H535        H  0.07316457  0.37573116  0.85763374     0.05100
C536        C  0.13467006  0.36609721  0.86968650     0.20600
H537        H  0.12061261  0.42857114  0.95588586     0.10300
C538        C  0.15931425  0.37372499  0.84605760    -0.15700
C539        C  0.17889438  0.35733857  0.82746489     0.03300
C540        C  0.17410632  0.33239236  0.83269285    -0.11000
C541        C  0.14893449  0.32501372  0.85627642    -0.01000
C542        C  0.12932059  0.34151459  0.87438542    -0.06200
H543        H  0.16334192  0.39268902  0.84207296     0.06300
H544        H  0.14422325  0.30620830  0.86082031     0.09700
Br545      Br  0.16989056  0.39381858  0.93741591    -0.05900
Br546      Br  0.02159124  0.40715661  0.88251758    -0.02800
Br547      Br  0.21111703  0.37106742  0.79570581     0.00000
Br548      Br  0.09598236  0.32958861  0.90608603    -0.04300
C549        C  0.42414614  0.42243985  0.58171463    -0.11700
C550        C  0.42444390  0.41924295  0.62158682     0.03700
C551        C  0.40511839  0.40188127  0.63816821    -0.12300
C552        C  0.38550427  0.38763049  0.61537648     0.18600
C553        C  0.38556830  0.39058272  0.57546404    -0.09300
C554        C  0.40486600  0.40795288  0.55889758    -0.02300
H555        H  0.40546125  0.39938898  0.66886482     0.05100
C556        C  0.36567437  0.36933042  0.63360224     0.20600
H557        H  0.40437217  0.41049311  0.52822460     0.10300
C558        C  0.33383054  0.37407326  0.64023692    -0.15700
C559        C  0.31424634  0.35675005  0.65664295     0.03300
C560        C  0.32671734  0.33421484  0.66670073    -0.11000
C561        C  0.35874240  0.32968473  0.65994190    -0.01000
C562        C  0.37817903  0.34703763  0.64366969    -0.06200
H563        H  0.32412974  0.39122339  0.63215428     0.06300
H564        H  0.36883340  0.31260008  0.66764822     0.09700
Br565      Br  0.35982694  0.37117674  0.54273151    -0.05900
Br566      Br  0.45175094  0.43749336  0.65413859    -0.02800
Br567      Br  0.27051685  0.36449612  0.66205014     0.00000
Br568      Br  0.42158833  0.33952413  0.63506155    -0.04300
O569        O  0.43574825  0.96300803  0.07201973    -0.75100
O570        O  0.46434153  0.93488110  0.04008479    -0.54000
C571        C  0.44275081  0.94131024  0.06352648     0.78700
O572        O  0.44292643  0.54269557  0.42081197    -0.59700
O573        O  0.46759286  0.57054464  0.45793827    -0.52700
C574        C  0.44822617  0.56437175  0.43145930     0.70700
O575        O  0.44056708  0.96216583  0.42500451    -0.74200
O576        O  0.46754580  0.93443559  0.45913748    -0.54800
C577        C  0.44671338  0.94039967  0.43439447     0.76700
O578        O  0.43520226  0.54330838  0.06863183    -0.59400
O579        O  0.46605893  0.57115741  0.03912805    -0.52500
C580        C  0.44305800  0.56499095  0.06088701     0.73300
Zr581      Zr  0.45273593  0.00303060  0.05387558     2.54700
O582        O  0.39567746  0.00224613  0.04915805    -0.79900
O583        O  0.45089743  0.50541255  0.12330489    -0.93300
Zr584      Zr  0.45895121  0.00245141  0.44000751     2.64700
O585        O  0.40225493  0.00242957  0.43037250    -0.98300
O586        O  0.46956345  0.50103289  0.37172078    -0.80400
O587        O  0.45482198  0.97987970  0.99723843    -0.83700
O588        O  0.45510450  0.52550899  0.99656830    -2.18400
O589        O  0.06191341  0.54324229  0.07795104    -0.67100
O590        O  0.03592018  0.57102128  0.04244989    -0.51700
C591        C  0.05620600  0.56491826  0.06781359     0.71700
O592        O  0.06973273  0.96133695  0.43427908    -0.60000
O593        O  0.03720372  0.93393264  0.46233683    -0.52000
C594        C  0.06068071  0.93977151  0.44122049     0.73500
O595        O  0.07146904  0.54203563  0.43380316    -0.71400
O596        O  0.03865613  0.57010044  0.45922977    -0.50100
C597        C  0.06285515  0.56375384  0.43971372     0.74800
O598        O  0.06305456  0.96269026  0.07731604    -0.66700
O599        O  0.03545150  0.93453231  0.04409294    -0.53900
C600        C  0.05651522  0.94091367  0.06842227     0.73200
Zr601      Zr  0.04525741  0.50283175  0.06132332     2.77500
O602        O  0.10205961  0.50253745  0.06981211    -0.97500
O603        O  0.03685060  0.50276096  0.13013585    -0.78300
Zr604      Zr  0.05168439  0.50198745  0.44782553     2.70100
O605        O  0.10884278  0.50105368  0.44934549    -0.79600
O606        O  0.05075542  0.50247654  0.37826021    -0.98600
Zr607      Zr  0.00155392  0.95687686  0.50146964     2.21500
Zr608      Zr  0.50227062  0.54841168  0.99994604     2.11100
O609        O  0.04920371  0.52532725  0.50422900    -2.47300
O610        O  0.04886646  0.97947091  0.50502996    -0.79300
O611        O  0.49912808  0.52642643  0.05819181    -0.71500
O612        O  0.00504219  0.97885464  0.44325274    -2.32500
O613        O  0.99878262  0.97950254  0.05912940    -2.28700
O614        O  0.50560828  0.52572095  0.44248284    -0.73300
H615        H  0.43678175  0.53565433  0.49503720     0.78700
H616        H  0.00603576  0.96829247  0.42144655     0.79800
H617        H  0.06759089  0.53541198  0.00559812     0.82000
H618        H  0.99772475  0.96921453  0.08126521     0.79600
H619        H  0.44870178  0.99853834  0.35981400     0.42600
H620        H  0.07274502  0.50597824  0.37081582     0.41600
H621        H  0.11420605  0.00286599  0.47672628     0.41300
H622        H  0.11003666  0.51512274  0.05241479     0.39200
H623        H  0.02535630  0.51777175  0.13529565     0.42400
H624        H  0.46632387  0.99345957  0.13220594     0.37100
H625        H  0.39140637  0.00199547  0.02134789     0.43300
H626        H  0.39437833  0.51576112  0.44626782     0.39700
H627        H  0.10554011  0.50900027  0.09580950     0.44600
H628        H  0.43018836  0.99856316  0.13026046     0.43300
H629        H  0.39927002  0.00787864  0.40370506     0.43500
H630        H  0.04743873  0.48560696  0.37076280     0.43800
O631        O  0.32007018  0.79274829  0.31584192    -0.75100
O632        O  0.28762514  0.82066056  0.28938261    -0.54000
C633        C  0.31154267  0.81443670  0.30956268     0.78700
O634        O  0.31147136  0.71272189  0.16883280    -0.59700
O635        O  0.28636171  0.68458610  0.20484899    -0.52700
C636        C  0.30544769  0.69091782  0.17817074     0.70700
O637        O  0.31443772  0.79342327  0.17528170    -0.74200
O638        O  0.28595134  0.82108677  0.20813370    -0.54800
C639        C  0.30749724  0.81509135  0.18428204     0.76700
O640        O  0.31797793  0.71256722  0.32045331    -0.59400
O641        O  0.28931778  0.68450213  0.28866587    -0.52500
C642        C  0.31097184  0.69075417  0.31229168     0.73300
Zr643      Zr  0.30039369  0.75259184  0.30336292     2.54700
O644        O  0.35754626  0.75166412  0.30635780    -0.79900
O645        O  0.29612097  0.75404906  0.37263590    -0.93300
Zr646      Zr  0.29689276  0.75290213  0.18972725     2.64700
O647        O  0.35402498  0.75273564  0.18545988    -0.98300
O648        O  0.29105062  0.75576757  0.12070364    -0.80400
O649        O  0.29871115  0.77571106  0.24671977    -0.83700
O650        O  0.29997868  0.72973493  0.24631004    -2.18400
O651        O  0.19118649  0.71123584  0.32388467    -0.67100
O652        O  0.21889218  0.68354726  0.29039183    -0.51700
C653        C  0.19765214  0.68952061  0.31467574     0.71700
O654        O  0.18658537  0.79195107  0.17691696    -0.60000
O655        O  0.21503056  0.82014032  0.20895050    -0.52000
C656        C  0.19347939  0.81374994  0.18518118     0.73500
O657        O  0.18556083  0.71162288  0.17999084    -0.71400
O658        O  0.21710829  0.68392644  0.20869763    -0.50100
C659        C  0.19370797  0.69001942  0.18767410     0.74800
O660        O  0.18799777  0.79165684  0.32286131    -0.66700
O661        O  0.21560907  0.81998553  0.29065790    -0.53900
C662        C  0.19398425  0.81359395  0.31420921     0.73200
Zr663      Zr  0.20770813  0.75181404  0.30781719     2.77500
O664        O  0.15076563  0.75106670  0.31503995    -0.97500
O665        O  0.21584512  0.75200295  0.37668226    -0.78300
Zr666      Zr  0.20428107  0.75194567  0.19396165     2.70100
O667        O  0.14711229  0.75212759  0.19305654    -0.79600
O668        O  0.20754374  0.75065990  0.12458160    -0.98600
Zr669      Zr  0.25140054  0.79827807  0.24931263     2.21500
Zr670      Zr  0.25300426  0.70647191  0.24851950     2.11100
O671        O  0.20568107  0.72909349  0.25085773    -2.47300
O672        O  0.20477388  0.77481099  0.25102927    -0.79300
O673        O  0.25438233  0.72870477  0.30649242    -0.71500
O674        O  0.25023535  0.77589665  0.19126322    -2.32500
O675        O  0.25378975  0.77570992  0.30704959    -2.28700
O676        O  0.25086696  0.72892486  0.19072228    -0.73300
H677        H  0.31836473  0.71966602  0.24531329     0.78700
H678        H  0.24953555  0.78632550  0.16927771     0.79800
H679        H  0.18745081  0.71885987  0.25171041     0.82000
H680        H  0.25435394  0.78604523  0.32913152     0.79600
H681        H  0.27673515  0.74245255  0.11392264     0.42600
H682        H  0.21691153  0.73490622  0.11881946     0.41600
H683        H  0.14101227  0.74944364  0.22001448     0.41300
H684        H  0.14328757  0.73954419  0.29556053     0.39200
H685        H  0.22144137  0.73531564  0.38307268     0.42400
H686        H  0.31814002  0.75335898  0.38177606     0.37100
H687        H  0.36427326  0.75019491  0.27938340     0.43300
H688        H  0.36071795  0.73885793  0.20096285     0.39700
H689        H  0.14691860  0.74303298  0.33981534     0.44600
H690        H  0.28703748  0.73838585  0.37980798     0.43300
H691        H  0.35853914  0.74805310  0.15874046     0.43500
H692        H  0.18542626  0.74917061  0.11607437     0.43800
C693        C  0.07494989  0.58385525  0.08658972    -0.11700
C694        C  0.08476186  0.60475377  0.06715125     0.03700
C695        C  0.10435679  0.62116972  0.08553195    -0.12300
C696        C  0.11485376  0.61711785  0.12286854     0.20200
C697        C  0.10496462  0.59650855  0.14247962    -0.09300
C698        C  0.08518216  0.58012286  0.12433069    -0.02300
H699        H  0.11197060  0.63704431  0.07035815     0.05100
C700        C  0.13598838  0.63477920  0.14067281     0.20600
H701        H  0.07806560  0.56420470  0.13972063     0.10300
C702        C  0.12422778  0.64963893  0.16948007    -0.15700
C703        C  0.14292532  0.66767881  0.18514463     0.03300
C704        C  0.17396832  0.67085349  0.17215624    -0.11000
C705        C  0.18602899  0.65566145  0.14396000    -0.01000
C706        C  0.16712270  0.63783211  0.12783262    -0.06200
H707        H  0.10027391  0.64740360  0.17937047     0.06300
H708        H  0.20993986  0.65799274  0.13397020     0.09700
Br709      Br  0.11892296  0.58937994  0.19332707    -0.05900
Br710      Br  0.07469880  0.61139613  0.01478135    -0.02800
Br711      Br  0.12534280  0.68717028  0.22483510     0.00000
Br712      Br  0.18458915  0.61810663  0.08834744    -0.04300
C713        C  0.08241280  0.58277256  0.42294054    -0.11700
C714        C  0.11474213  0.58463804  0.43140011     0.03700
C715        C  0.13280165  0.60261345  0.41437714    -0.12300
C716        C  0.11920764  0.61871213  0.38864550     0.18600
C717        C  0.08695104  0.61690650  0.38017911    -0.09300
C718        C  0.06869062  0.59921255  0.39775793    -0.02300
H719        H  0.15760319  0.60398488  0.42106419     0.05100
C720        C  0.13937409  0.63676618  0.37009603     0.20600
H721        H  0.04389246  0.59789306  0.39101680     0.10300
C722        C  0.15349445  0.63132442  0.33506305    -0.15700
C723        C  0.17290135  0.64790019  0.31651310     0.03300
C724        C  0.17875647  0.67047540  0.33350104    -0.11000
C725        C  0.16458651  0.67562463  0.36892102    -0.01000
C726        C  0.14506260  0.65907210  0.38712479    -0.06200
H727        H  0.14901252  0.61414825  0.32182983     0.06300
H728        H  0.16854771  0.69272383  0.38261399     0.09700
Br729      Br  0.06718893  0.63777566  0.34405020    -0.05900
Br730      Br  0.13508652  0.56390934  0.46735394    -0.02800
Br731      Br  0.18849483  0.63873198  0.26718081     0.00000
Br732      Br  0.12630178  0.66791336  0.43488231    -0.04300
C733        C  0.17451919  0.83280083  0.16701173    -0.11700
C734        C  0.16273006  0.83074281  0.12932745     0.03700
C735        C  0.14322297  0.84856706  0.11448475    -0.12300
C736        C  0.13554849  0.86873040  0.13620907     0.18600
C737        C  0.14772287  0.87110880  0.17339669    -0.09300
C738        C  0.16699706  0.85323523  0.18847949    -0.02300
H739        H  0.13434228  0.84688296  0.08558681     0.05100
C740        C  0.11526815  0.88728339  0.11922668     0.20600
H741        H  0.17563725  0.85512159  0.21743895     0.10300
C742        C  0.08278642  0.88327631  0.11640326    -0.15700
C743        C  0.06299346  0.90051803  0.10024267     0.03300
C744        C  0.07584514  0.92214410  0.08644697    -0.11000
C745        C  0.10838212  0.92602432  0.08941443    -0.01000
C746        C  0.12806305  0.90878395  0.10537366    -0.06200
H747        H  0.07279137  0.86677371  0.12717218     0.06300
H748        H  0.11867383  0.94241317  0.07859431     0.09700
Br749      Br  0.13823779  0.89828337  0.20475595    -0.05900
Br750      Br  0.17381440  0.80497888  0.09568630    -0.02800
Br751      Br  0.01861661  0.89420589  0.10001411     0.00000
Br752      Br  0.17238002  0.91509427  0.10664004    -0.04300
C753        C  0.32285993  0.67175613  0.15812984    -0.11700
C754        C  0.33166919  0.67355685  0.11924379     0.03700
C755        C  0.35091069  0.65604918  0.10293128    -0.12300
C756        C  0.36100479  0.63641622  0.12445684     0.18600
C757        C  0.35101093  0.63392470  0.16248617    -0.09300
C758        C  0.33222721  0.65153468  0.17908668    -0.02300
H759        H  0.35787880  0.65765294  0.07326368     0.05100
C760        C  0.38192887  0.61855405  0.10695606     0.20600
H761        H  0.32556869  0.64966051  0.20881843     0.10300
C762        C  0.41456785  0.62220038  0.10789455    -0.15700
C763        C  0.43513415  0.60502973  0.09308251     0.03300
C764        C  0.42288720  0.58387091  0.07694671    -0.11000
C765        C  0.39018608  0.58033152  0.07623312    -0.01000
C766        C  0.36975330  0.59743393  0.09103765    -0.06200
H767        H  0.42405059  0.63825990  0.12082612     0.06300
H768        H  0.38042745  0.56417917  0.06389437     0.09700
Br769      Br  0.36285217  0.60676621  0.19266508    -0.05900
Br770      Br  0.31674509  0.69851604  0.08626939    -0.02800
Br771      Br  0.47951428  0.61058536  0.09808192     0.00000
Br772      Br  0.32544411  0.59102446  0.08949739    -0.04300
C773        C  0.42835726  0.92119006  0.41491834    -0.11700
C774        C  0.42707646  0.89720396  0.42817561     0.03700
C775        C  0.40846851  0.88041484  0.40898504    -0.12300
C776        C  0.39097509  0.88676622  0.37670731     0.18600
C777        C  0.39230501  0.91035161  0.36315670    -0.09300
C778        C  0.41087102  0.92723332  0.38207175    -0.02300
H779        H  0.40728990  0.86224521  0.41960839     0.05100
C780        C  0.37080263  0.86860667  0.35833257     0.20600
H781        H  0.41149343  0.94525745  0.37083539     0.10300
C782        C  0.33812737  0.86994721  0.36293330    -0.15700
C783        C  0.31837505  0.85249775  0.34726364     0.03300
C784        C  0.33132093  0.83340138  0.32634982    -0.11000
C785        C  0.36409402  0.83197762  0.32213820    -0.01000
C786        C  0.38382131  0.84940619  0.33788046    -0.06200
H787        H  0.32803451  0.88437971  0.37945710     0.06300
H788        H  0.37437586  0.81733505  0.30626920     0.09700
Br789      Br  0.36948147  0.92027403  0.31862213    -0.05900
Br790      Br  0.44869504  0.88560008  0.47267718    -0.02800
Br791      Br  0.27435497  0.85442612  0.35827547     0.00000
Br792      Br  0.42831341  0.84660429  0.33016640    -0.04300
C793        C  0.42942177  0.58346919  0.41344065    -0.11700
C794        C  0.42462080  0.58463586  0.37359063     0.03700
C795        C  0.40476090  0.60209018  0.35823720    -0.12300
C796        C  0.38973676  0.61867143  0.38198218     0.18600
C797        C  0.39496447  0.61783337  0.42167543    -0.09300
C798        C  0.41471449  0.60036366  0.43706100    -0.02300
H799        H  0.40133710  0.60295299  0.32758929     0.05100
C800        C  0.36941280  0.63710172  0.36466250     0.20600
H801        H  0.41805578  0.59965128  0.46774234     0.10300
C802        C  0.33845254  0.63133775  0.35440895    -0.15700
C803        C  0.31874990  0.64839461  0.33753008     0.03300
C804        C  0.33015498  0.67181457  0.33067781    -0.11000
C805        C  0.36126189  0.67736874  0.34120016    -0.01000
C806        C  0.38083442  0.66025777  0.35771782    -0.06200
H807        H  0.32955265  0.61349036  0.35972756     0.06300
H808        H  0.37075514  0.69503297  0.33584548     0.09700
Br809      Br  0.37526715  0.63991023  0.45599894    -0.05900
Br810      Br  0.44624681  0.56400903  0.33870269    -0.02800
Br811      Br  0.27638892  0.63863718  0.32622009     0.00000
Br812      Br  0.42337775  0.66909544  0.36920857    -0.04300
C813        C  0.07875099  0.92028453  0.42370245    -0.11700
C814        C  0.06507732  0.90470818  0.39675937     0.03700
C815        C  0.08352584  0.88712707  0.37927324    -0.12300
C816        C  0.11520780  0.88417214  0.38951984     0.18600
C817        C  0.12823144  0.89889501  0.41810220    -0.09300
C818        C  0.11022179  0.91712662  0.43431302    -0.02300
H819        H  0.07316489  0.87573265  0.35762804     0.05100
C820        C  0.13466960  0.86609753  0.36968476     0.20600
H821        H  0.12060971  0.92857013  0.45588581     0.10300
C822        C  0.15931513  0.87372540  0.34605795    -0.15700
C823        C  0.17889555  0.85733904  0.32746554     0.03300
C824        C  0.17410646  0.83239281  0.33269177    -0.11000
C825        C  0.14893345  0.82501411  0.35627339    -0.01000
C826        C  0.12931936  0.84151491  0.37438221    -0.06200
H827        H  0.16334353  0.89268945  0.34207454     0.06300
H828        H  0.14422143  0.80620867  0.36081592     0.09700
Br829      Br  0.16988685  0.89381606  0.43741941    -0.05900
Br830      Br  0.02159092  0.90715788  0.38251006    -0.02800
Br831      Br  0.21111970  0.87106793  0.29570877     0.00000
Br832      Br  0.09598003  0.82958876  0.40608095    -0.04300
C833        C  0.42414643  0.92244010  0.08171487    -0.11700
C834        C  0.42444414  0.91924307  0.12158707     0.03700
C835        C  0.40511862  0.90188119  0.13816804    -0.12300
C836        C  0.38550469  0.88763045  0.11537596     0.18600
C837        C  0.38556876  0.89058295  0.07546361    -0.09300
C838        C  0.40486620  0.90795338  0.05889755    -0.02300
H839        H  0.40546133  0.89938872  0.16886461     0.05100
C840        C  0.36567472  0.86933023  0.13360122     0.20600
H841        H  0.40437238  0.91049384  0.02822461     0.10300
C842        C  0.33383173  0.87407416  0.14024014    -0.15700
C843        C  0.31424753  0.85675112  0.15664671     0.03300
C844        C  0.32671764  0.83421489  0.16670033    -0.11000
C845        C  0.35874173  0.82968359  0.15993669    -0.01000
C846        C  0.37817844  0.84703636  0.14366437    -0.06200
H847        H  0.32413159  0.89122510  0.13216071     0.06300
H848        H  0.36883209  0.81259816  0.16763977     0.09700
Br849      Br  0.35982813  0.87117670  0.04273071    -0.05900
Br850      Br  0.45175069  0.93749378  0.15413940    -0.02800
Br851      Br  0.27051909  0.86449897  0.16206074     0.00000
Br852      Br  0.42158668  0.83952130  0.13505158    -0.04300
O853        O  0.43574990  0.96300762  0.57202077    -0.75100
O854        O  0.46434273  0.93488079  0.54008518    -0.54000
C855        C  0.44275233  0.94130988  0.56352720     0.78700
O856        O  0.44292145  0.54269461  0.92081902    -0.59700
O857        O  0.46759197  0.57054416  0.95794067    -0.52700
C858        C  0.44822262  0.56437090  0.93146479     0.70700
O859        O  0.44056635  0.96216699  0.92500413    -0.74200
O860        O  0.46754486  0.93443653  0.95913697    -0.54800
C861        C  0.44671239  0.94040080  0.93439410     0.76700
O862        O  0.43520006  0.54330881  0.56862821    -0.59400
O863        O  0.46605803  0.57115800  0.53912732    -0.52500
C864        C  0.44305636  0.56499153  0.56088506     0.73300
Zr865      Zr  0.45273648  0.00303012  0.55387524     2.54700
O866        O  0.39567798  0.00224353  0.54915938    -0.79900
O867        O  0.45089492  0.50541466  0.62330407    -0.93300
Zr868      Zr  0.45895108  0.00245214  0.94000778     2.64700
O869        O  0.40225459  0.00243085  0.93037467    -0.98300
O870        O  0.46955612  0.50103177  0.87172162    -0.80400
O871        O  0.45482196  0.97987903  0.49723821    -0.83700
O872        O  0.45510314  0.52550912  0.49656683    -2.18400
O873        O  0.06191113  0.54324306  0.57795273    -0.67100
O874        O  0.03592070  0.57102207  0.54244849    -0.51700
C875        C  0.05620540  0.56491899  0.56781350     0.71700
O876        O  0.06973192  0.96133668  0.93428039    -0.60000
O877        O  0.03720310  0.93393239  0.96233847    -0.52000
C878        C  0.06067980  0.93977123  0.94122170     0.73500
O879        O  0.07147081  0.54203618  0.93380347    -0.71400
O880        O  0.03865778  0.57010115  0.95922955    -0.50100
C881        C  0.06285716  0.56375441  0.93971434     0.74800
O882        O  0.06305438  0.96268995  0.57731361    -0.66700
O883        O  0.03545139  0.93453203  0.54409041    -0.53900
C884        C  0.05651517  0.94091338  0.56841965     0.73200
Zr885      Zr  0.04525690  0.50283191  0.56132581     2.77500
O886        O  0.10206010  0.50253648  0.56980533    -0.97500
O887        O  0.03685598  0.50276127  0.63013950    -0.78300
Zr888      Zr  0.05168548  0.50198772  0.94782290     2.70100
O889        O  0.10884381  0.50105584  0.94934966    -0.79600
O890        O  0.05075560  0.50247967  0.87825743    -0.98600
Zr891      Zr  0.00155406  0.95687683  0.00147167     2.21500
Zr892      Zr  0.50226954  0.54841192  0.49994575     2.11100
O893        O  0.04920455  0.52532716  0.00422662    -2.47300
O894        O  0.04886648  0.97947099  0.00503215    -0.79300
O895        O  0.49912633  0.52642703  0.55819246    -0.71500
O896        O  0.00504205  0.97885445  0.94325460    -2.32500
O897        O  0.99878267  0.97950255  0.55912737    -2.28700
O898        O  0.50560751  0.52572049  0.94248310    -0.73300
H899        H  0.43678298  0.53565408  0.99503975     0.78700
H900        H  0.00603562  0.96829252  0.92144885     0.79800
H901        H  0.06758967  0.53541204  0.50559987     0.82000
H902        H  0.99772480  0.96921451  0.58126314     0.79600
H903        H  0.44870340  0.99853945  0.85981389     0.42600
H904        H  0.07274463  0.50598230  0.87081290     0.41600
H905        H  0.11420596  0.00287047  0.97672773     0.41300
H906        H  0.11003547  0.51512154  0.55240669     0.39200
H907        H  0.02533502  0.51776101  0.63529577     0.42400
H908        H  0.46631975  0.99345766  0.63220651     0.37100
H909        H  0.39140548  0.00203687  0.52134895     0.43300
H910        H  0.39437392  0.51573829  0.94631877     0.39700
H911        H  0.10554372  0.50899945  0.59580235     0.44600
H912        H  0.43018567  0.99856657  0.63025875     0.43300
H913        H  0.39926827  0.00789125  0.90371362     0.43500
H914        H  0.04743956  0.48561049  0.87075838     0.43800
O915        O  0.32007153  0.79274830  0.81584075    -0.75100
O916        O  0.28762652  0.82066041  0.78938087    -0.54000
C917        C  0.31154420  0.81443666  0.80956087     0.78700
O918        O  0.31147084  0.71272231  0.66883068    -0.59700
O919        O  0.28636215  0.68458679  0.70484867    -0.52700
C920        C  0.30544717  0.69091837  0.67816938     0.70700
O921        O  0.31443741  0.79342347  0.67528045    -0.74200
O922        O  0.28595099  0.82108687  0.70813249    -0.54800
C923        C  0.30749688  0.81509155  0.68428072     0.76700
O924        O  0.31798026  0.71256795  0.82045210    -0.59400
O925        O  0.28931819  0.68450268  0.78866768    -0.52500
C926        C  0.31097333  0.69075485  0.81229211     0.73300
Zr927      Zr  0.30039361  0.75259215  0.80336325     2.54700
O928        O  0.35754588  0.75166519  0.80636639    -0.79900
O929        O  0.29611459  0.75404862  0.87263566    -0.93300
Zr930      Zr  0.29689328  0.75290228  0.68972719     2.64700
O931        O  0.35402572  0.75273593  0.68546273    -0.98300
O932        O  0.29105573  0.75576743  0.62070298    -0.80400
O933        O  0.29871102  0.77571112  0.74671974    -0.83700
O934        O  0.29997937  0.72973520  0.74631024    -2.18400
O935        O  0.19118690  0.71123615  0.82388492    -0.67100
O936        O  0.21889185  0.68354754  0.79039112    -0.51700
C937        C  0.19765216  0.68952094  0.81467544     0.71700
O938        O  0.18658549  0.79195135  0.67691717    -0.60000
O939        O  0.21503050  0.82014084  0.70895034    -0.52000
C940        C  0.19347941  0.81375034  0.68518105     0.73500
O941        O  0.18556189  0.71162274  0.67999011    -0.71400
O942        O  0.21710808  0.68392641  0.70869931    -0.50100
C943        C  0.19370870  0.69001932  0.68767418     0.74800
O944        O  0.18799781  0.79165719  0.82286090    -0.66700
O945        O  0.21560768  0.81998587  0.79065567    -0.53900
C946        C  0.19398341  0.81359429  0.81420778     0.73200
Zr947      Zr  0.20770874  0.75181435  0.80781769     2.77500
O948        O  0.15076634  0.75106616  0.81504045    -0.97500
O949        O  0.21584364  0.75200588  0.87668317    -0.78300
Zr950      Zr  0.20428101  0.75194568  0.69396207     2.70100
O951        O  0.14711214  0.75212638  0.69306017    -0.79600
O952        O  0.20754072  0.75065980  0.62458193    -0.98600
Zr953      Zr  0.25140047  0.79827827  0.74931203     2.21500
Zr954      Zr  0.25300491  0.70647211  0.74851986     2.11100
O955        O  0.20568183  0.72909375  0.75085822    -2.47300
O956        O  0.20477394  0.77481103  0.75102953    -0.79300
O957        O  0.25438270  0.72870460  0.80649317    -0.71500
O958        O  0.25023542  0.77589647  0.69126288    -2.32500
O959        O  0.25378999  0.77571065  0.80704960    -2.28700
O960        O  0.25086729  0.72892510  0.69072250    -0.73300
H961        H  0.31836600  0.71966609  0.74531348     0.78700
H962        H  0.24953546  0.78632492  0.66927782     0.79800
H963        H  0.18745213  0.71886034  0.75171085     0.82000
H964        H  0.25435423  0.78604652  0.82913204     0.79600
H965        H  0.27673841  0.74245382  0.61392129     0.42600
H966        H  0.21690749  0.73490616  0.61881932     0.41600
H967        H  0.14101317  0.74943849  0.72001740     0.41300
H968        H  0.14328859  0.73954326  0.79556160     0.39200
H969        H  0.22143717  0.73531844  0.88307602     0.42400
H970        H  0.31813316  0.75335861  0.88177884     0.37100
H971        H  0.36427575  0.75019947  0.77939205     0.43300
H972        H  0.36071839  0.73885901  0.70096808     0.39700
H973        H  0.14691947  0.74303274  0.83981644     0.44600
H974        H  0.28703100  0.73838553  0.87980583     0.43300
H975        H  0.35854093  0.74805193  0.65874400     0.43500
H976        H  0.18542242  0.74917102  0.61607592     0.43800
C977        C  0.07495014  0.58385563  0.58658941    -0.11700
C978        C  0.08476293  0.60475398  0.56715122     0.03700
C979        C  0.10435865  0.62116937  0.58553177    -0.12300
C980        C  0.11485547  0.61711726  0.62286830     0.20200
C981        C  0.10496535  0.59650817  0.64247932    -0.09300
C982        C  0.08518243  0.58012291  0.62433022    -0.02300
H983        H  0.11197281  0.63704392  0.57035808     0.05100
C984        C  0.13599019  0.63477854  0.64067263     0.20600
H985        H  0.07806510  0.56420497  0.63972022     0.10300
C986        C  0.12423065  0.64963642  0.66948298    -0.15700
C987        C  0.14292787  0.66767660  0.68514719     0.03300
C988        C  0.17396953  0.67085335  0.67215562    -0.11000
C989        C  0.18602911  0.65566351  0.64395563    -0.01000
C990        C  0.16712296  0.63783402  0.62782831    -0.06200
H991        H  0.10027771  0.64739958  0.67937583     0.06300
H992        H  0.20993887  0.65799666  0.63396298     0.09700
Br993      Br  0.11892148  0.58937958  0.69332758    -0.05900
Br994      Br  0.07469906  0.61139737  0.51478228    -0.02800
Br995      Br  0.12534697  0.68716615  0.72484106     0.00000
Br996      Br  0.18458705  0.61811200  0.58833710    -0.04300
C997        C  0.08241491  0.58277292  0.92294144    -0.11700
C998        C  0.11474423  0.58463840  0.93140079     0.03700
C999        C  0.13280341  0.60261401  0.91437782    -0.12300
C1000       C  0.11920893  0.61871254  0.88864617     0.18600
C1001       C  0.08695251  0.61690617  0.88017907    -0.09300
C1002       C  0.06869253  0.59921235  0.89775836    -0.02300
H1003       H  0.15760495  0.60398564  0.92106477     0.05100
C1004       C  0.13937487  0.63676674  0.87009670     0.20600
H1005       H  0.04389445  0.59789239  0.89101700     0.10300
C1006       C  0.15349378  0.63132524  0.83506288    -0.15700
C1007       C  0.17290049  0.64790083  0.81651258     0.03300
C1008       C  0.17875675  0.67047576  0.83350100    -0.11000
C1009       C  0.16458840  0.67562471  0.86892212    -0.01000
C1010       C  0.14506444  0.65907231  0.88712618    -0.06200
H1011       H  0.14901100  0.61414927  0.82182942     0.06300
H1012       H  0.16855066  0.69272365  0.88261546     0.09700
Br1013     Br  0.06718941  0.63777360  0.84404842    -0.05900
Br1014     Br  0.13508874  0.56390938  0.96735411    -0.02800
Br1015     Br  0.18849309  0.63873194  0.76718019     0.00000
Br1016     Br  0.12630386  0.66791351  0.93488408    -0.04300
C1017       C  0.17451950  0.83280125  0.66701092    -0.11700
C1018       C  0.16273043  0.83074285  0.62932666     0.03700
C1019       C  0.14322387  0.84856717  0.61448317    -0.12300
C1020       C  0.13554969  0.86873093  0.63620664     0.18600
C1021       C  0.14772415  0.87110987  0.67339413    -0.09300
C1022       C  0.16699803  0.85323627  0.68847770    -0.02300
H1023       H  0.13434312  0.84688268  0.58558532     0.05100
C1024       C  0.11526906  0.88728360  0.61922373     0.20600
H1025       H  0.17563837  0.85512306  0.71743701     0.10300
C1026       C  0.08278740  0.88327611  0.61640006    -0.15700
C1027       C  0.06299409  0.90051769  0.60023966     0.03300
C1028       C  0.07584542  0.92214386  0.58644388    -0.11000
C1029       C  0.10838233  0.92602441  0.58941131    -0.01000
C1030       C  0.12806352  0.90878443  0.60537110    -0.06200
H1031       H  0.07279266  0.86677343  0.62716904     0.06300
H1032       H  0.11867368  0.94241345  0.57859141     0.09700
Br1033     Br  0.13823909  0.89828508  0.70475218    -0.05900
Br1034     Br  0.17381400  0.80497818  0.59568650    -0.02800
Br1035     Br  0.01861720  0.89420552  0.60001202     0.00000
Br1036     Br  0.17238010  0.91509605  0.60664041    -0.04300
C1037       C  0.32285837  0.67175655  0.65812822    -0.11700
C1038       C  0.33166032  0.67355466  0.61923958     0.03700
C1039       C  0.35090203  0.65604744  0.60292612    -0.12300
C1040       C  0.36100286  0.63641733  0.62445372     0.18600
C1041       C  0.35101594  0.63392832  0.66248605    -0.09300
C1042       C  0.33223209  0.65153783  0.67908722    -0.02300
H1043       H  0.35786461  0.65764914  0.57325631     0.05100
C1044       C  0.38192656  0.61855520  0.60695248     0.20600
H1045       H  0.32557889  0.64966573  0.70882108     0.10300
C1046       C  0.41456497  0.62220511  0.60788026    -0.15700
C1047       C  0.43513157  0.60503437  0.59306919     0.03300
C1048       C  0.42288547  0.58387154  0.57694541    -0.11000
C1049       C  0.39018478  0.58032850  0.57624346    -0.01000
C1050       C  0.36975178  0.59743108  0.59104685    -0.06200
H1051       H  0.42404720  0.63826766  0.62080279     0.06300
H1052       H  0.38042640  0.56417326  0.56391411     0.09700
Br1053     Br  0.36286801  0.60677431  0.69266861    -0.05900
Br1054     Br  0.31672405  0.69850876  0.58626365    -0.02800
Br1055     Br  0.47951141  0.61059661  0.59805333     0.00000
Br1056     Br  0.32544345  0.59101660  0.58952188    -0.04300
C1057       C  0.42835593  0.92119138  0.91491814    -0.11700
C1058       C  0.42707523  0.89720520  0.92817509     0.03700
C1059       C  0.40846793  0.88041603  0.90898366    -0.12300
C1060       C  0.39097469  0.88676751  0.87670583     0.18600
C1061       C  0.39230363  0.91035324  0.86315649    -0.09300
C1062       C  0.41086928  0.92723492  0.88207205    -0.02300
H1063       H  0.40728957  0.86224629  0.91960652     0.05100
C1064       C  0.37080292  0.86860772  0.85833041     0.20600
H1065       H  0.41149116  0.94525923  0.87083639     0.10300
C1066       C  0.33812768  0.86994723  0.86293199    -0.15700
C1067       C  0.31837597  0.85249735  0.84726243     0.03300
C1068       C  0.33132234  0.83340152  0.82634789    -0.11000
C1069       C  0.36409550  0.83197859  0.82213563    -0.01000
C1070       C  0.38382228  0.84940766  0.83787778    -0.06200
H1071       H  0.32803437  0.88437924  0.87945649     0.06300
H1072       H  0.37437772  0.81733635  0.80626622     0.09700
Br1073     Br  0.36947937  0.92027647  0.81862308    -0.05900
Br1074     Br  0.44869251  0.88560137  0.97267778    -0.02800
Br1075     Br  0.27435595  0.85442420  0.85827539     0.00000
Br1076     Br  0.42831455  0.84660713  0.83016290    -0.04300
C1077       C  0.42941781  0.58346808  0.91344660    -0.11700
C1078       C  0.42461731  0.58463445  0.87359667     0.03700
C1079       C  0.40475854  0.60208918  0.85824232    -0.12300
C1080       C  0.38973559  0.61867148  0.88198657     0.18600
C1081       C  0.39496193  0.61783301  0.92168013    -0.09300
C1082       C  0.41471059  0.60036268  0.93706652    -0.02300
H1083       H  0.40133513  0.60295168  0.82759432     0.05100
C1084       C  0.36941291  0.63710232  0.86466596     0.20600
H1085       H  0.41805130  0.59965015  0.96774795     0.10300
C1086       C  0.33845256  0.63133884  0.85441231    -0.15700
C1087       C  0.31875040  0.64839582  0.83753310     0.03300
C1088       C  0.33015629  0.67181533  0.83067915    -0.11000
C1089       C  0.36126332  0.67736921  0.84120195    -0.01000
C1090       C  0.38083527  0.66025823  0.85772105    -0.06200
H1091       H  0.32955200  0.61349173  0.85973175     0.06300
H1092       H  0.37075696  0.69503329  0.83584699     0.09700
Br1093     Br  0.37526482  0.63991012  0.95600314    -0.05900
Br1094     Br  0.44624399  0.56400689  0.83871058    -0.02800
Br1095     Br  0.27638849  0.63863932  0.82622647     0.00000
Br1096     Br  0.42337829  0.66909603  0.86921467    -0.04300
C1097       C  0.07874964  0.92028424  0.92370302    -0.11700
C1098       C  0.06507595  0.90470853  0.89675898     0.03700
C1099       C  0.08352436  0.88712765  0.87927200    -0.12300
C1100       C  0.11520627  0.88417236  0.88951855     0.18600
C1101       C  0.12822966  0.89889433  0.91810217    -0.09300
C1102       C  0.11022023  0.91712573  0.93431386    -0.02300
H1103       H  0.07316339  0.87573370  0.85762618     0.05100
C1104       C  0.13466809  0.86609788  0.86968299     0.20600
H1105       H  0.12060814  0.92856858  0.95588754     0.10300
C1106       C  0.15931374  0.87372577  0.84605635    -0.15700
C1107       C  0.17889432  0.85733940  0.82746404     0.03300
C1108       C  0.17410527  0.83239314  0.83269013    -0.11000
C1109       C  0.14893229  0.82501443  0.85627189    -0.01000
C1110       C  0.12931818  0.84151528  0.87438078    -0.06200
H1111       H  0.16334227  0.89268983  0.84207323     0.06300
H1112       H  0.14422048  0.80620899  0.86081467     0.09700
Br1113     Br  0.16988425  0.89381409  0.93742050    -0.05900
Br1114     Br  0.02158977  0.90715881  0.88250916    -0.02800
Br1115     Br  0.21111929  0.87106828  0.79570843     0.00000
Br1116     Br  0.09597963  0.82958956  0.90608110    -0.04300
C1117       C  0.42414777  0.92243977  0.58171509    -0.11700
C1118       C  0.42444436  0.91924310  0.62158731     0.03700
C1119       C  0.40511781  0.90188185  0.63816799    -0.12300
C1120       C  0.38550410  0.88763125  0.61537548     0.18600
C1121       C  0.38556917  0.89058342  0.57546307    -0.09300
C1122       C  0.40486778  0.90795318  0.55889729    -0.02300
H1123       H  0.40545985  0.89938955  0.66886460     0.05100
C1124       C  0.36567418  0.86933092  0.63360028     0.20600
H1125       H  0.40437477  0.91049344  0.52822428     0.10300
C1126       C  0.33383163  0.87407518  0.64024124    -0.15700
C1127       C  0.31424750  0.85675197  0.65664747     0.03300
C1128       C  0.32671726  0.83421521  0.66669885    -0.11000
C1129       C  0.35874106  0.82968361  0.65993309    -0.01000
C1130       C  0.37817767  0.84703659  0.64366098    -0.06200
H1131       H  0.32413176  0.89122656  0.63216369     0.06300
H1132       H  0.36883130  0.81259785  0.66763450     0.09700
Br1133     Br  0.35982752  0.87117810  0.54273000    -0.05900
Br1134     Br  0.45175148  0.93749294  0.65413996    -0.02800
Br1135     Br  0.27051958  0.86450058  0.66206436     0.00000
Br1136     Br  0.42158575  0.83952175  0.63504581    -0.04300
O1137       O  0.93574556  0.46300910  0.07201679    -0.75100
O1138       O  0.96434015  0.43488220  0.04008354    -0.54000
C1139       C  0.94274854  0.44131135  0.06352414     0.78700
O1140       O  0.94292694  0.04269494  0.42080888    -0.59700
O1141       O  0.96759317  0.07054403  0.45793539    -0.52700
C1142       C  0.94822672  0.06437108  0.43145626     0.70700
O1143       O  0.94056924  0.46216697  0.42499940    -0.74200
O1144       O  0.96754410  0.43443693  0.45913733    -0.54800
C1145       C  0.94671395  0.44040090  0.43439138     0.76700
O1146       O  0.93520004  0.04330868  0.06862852    -0.59400
O1147       O  0.96605756  0.07115783  0.03912691    -0.52500
C1148       C  0.94305610  0.06499139  0.06088504     0.73300
Zr1149     Zr  0.95273566  0.50303072  0.05387220     2.54700
O1150       O  0.89567778  0.50224836  0.04914551    -0.79900
O1151       O  0.95089175  0.00541488  0.12330366    -0.93300
Zr1152     Zr  0.95895195  0.50245239  0.44000613     2.64700
O1153       O  0.90225634  0.50243214  0.43036446    -0.98300
O1154       O  0.96956266  0.00103067  0.37171874    -0.80400
O1155       O  0.95482314  0.47988007  0.99723502    -0.83700
O1156       O  0.95510281  0.02550880  0.99656629    -2.18400
O1157       O  0.56191388  0.04324324  0.07794971    -0.67100
O1158       O  0.53591886  0.07102205  0.04245015    -0.51700
C1159       C  0.55620562  0.06491917  0.06781279     0.71700
O1160       O  0.56973355  0.46133724  0.43428224    -0.60000
O1161       O  0.53720423  0.43393293  0.46233937    -0.52000
C1162       C  0.56068155  0.43977180  0.44122355     0.73500
O1163       O  0.57146932  0.04203579  0.43380279    -0.71400
O1164       O  0.53865683  0.07010092  0.45922949    -0.50100
C1165       C  0.56285590  0.06375404  0.43971374     0.74800
O1166       O  0.56305971  0.46268839  0.07730665    -0.66700
O1167       O  0.53544908  0.43453089  0.04409203    -0.53900
C1168       C  0.55651673  0.44091179  0.06841644     0.73200
Zr1169     Zr  0.54525775  0.00283241  0.06132388     2.77500
O1170       O  0.60205991  0.00253926  0.06981333    -0.97500
O1171       O  0.53685130  0.00276245  0.13013647    -0.78300
Zr1172     Zr  0.55168445  0.00198743  0.44782360     2.70100
O1173       O  0.60884284  0.00105484  0.44934975    -0.79600
O1174       O  0.55075381  0.00247839  0.37825825    -0.98600
Zr1175     Zr  0.50155317  0.45687678  0.50147107     2.21500
Zr1176     Zr  0.00226914  0.04841175  0.99994509     2.11100
O1177       O  0.54920461  0.02532783  0.50422644    -2.47300
O1178       O  0.54886587  0.47947055  0.50503229    -0.79300
O1179       O  0.99912624  0.02642727  0.05819212    -0.71500
O1180       O  0.50504198  0.47885502  0.44325481    -2.32500
O1181       O  0.49878349  0.47950171  0.05912895    -2.28700
O1182       O  0.00560818  0.02572085  0.44248060    -0.73300
H1183       H  0.93678138  0.03565439  0.49503514     0.78700
H1184       H  0.50603573  0.46829330  0.42144905     0.79800
H1185       H  0.56759075  0.03541308  0.00559798     0.82000
H1186       H  0.49772595  0.46921340  0.08126465     0.79600
H1187       H  0.94869753  0.49859707  0.35980617     0.42600
H1188       H  0.57274141  0.00598762  0.37081314     0.41600
H1189       H  0.61420591  0.50286648  0.47672981     0.41300
H1190       H  0.61003653  0.01512569  0.05241806     0.39200
H1191       H  0.52536423  0.01777656  0.13529729     0.42400
H1192       H  0.96631907  0.49345714  0.13220301     0.37100
H1193       H  0.89141284  0.50185491  0.02133819     0.43300
H1194       H  0.89437789  0.01575791  0.44626900     0.39700
H1195       H  0.60553990  0.00900077  0.09581209     0.44600
H1196       H  0.93018430  0.49856354  0.13025534     0.43300
H1197       H  0.89927457  0.50786942  0.40369027     0.43500
H1198       H  0.54744648  0.98560823  0.37075963     0.43800
O1199       O  0.82007060  0.29274844  0.31584091    -0.75100
O1200       O  0.78762559  0.32066083  0.28938196    -0.54000
C1201       C  0.81154330  0.31443689  0.30956169     0.78700
O1202       O  0.81146979  0.21272141  0.16883220    -0.59700
O1203       O  0.78636257  0.18458594  0.20485183    -0.52700
C1204       C  0.80544702  0.19091747  0.17817198     0.70700
O1205       O  0.81443983  0.29342275  0.17528330    -0.74200
O1206       O  0.78595175  0.32108626  0.20813314    -0.54800
C1207       C  0.80749872  0.31509083  0.18428285     0.76700
O1208       O  0.81797973  0.21256760  0.32045292    -0.59400
O1209       O  0.78931831  0.18450236  0.28866759    -0.52500
C1210       C  0.81097310  0.19075451  0.31229238     0.73300
Zr1211     Zr  0.80039375  0.25259194  0.30336348     2.54700
O1212       O  0.85754621  0.25166506  0.30636539    -0.79900
O1213       O  0.79611461  0.25404850  0.37263580    -0.93300
Zr1214     Zr  0.79689268  0.25290189  0.18972735     2.64700
O1215       O  0.85402480  0.25273471  0.18545883    -0.98300
O1216       O  0.79104950  0.25576714  0.12070372    -0.80400
O1217       O  0.79871116  0.27571080  0.24671993    -0.83700
O1218       O  0.79997902  0.22973508  0.24631057    -2.18400
O1219       O  0.69118616  0.21123611  0.32388558    -0.67100
O1220       O  0.71889212  0.18354765  0.29039275    -0.51700
C1221       C  0.69765196  0.18952091  0.31467648     0.71700
O1222       O  0.68658614  0.29194999  0.17691528    -0.60000
O1223       O  0.71503058  0.32013950  0.20894930    -0.52000
C1224       C  0.69347996  0.31374886  0.18517934     0.73500
O1225       O  0.68556251  0.21162243  0.17998979    -0.71400
O1226       O  0.71710863  0.18392624  0.20869942    -0.50100
C1227       C  0.69370933  0.19001908  0.18767408     0.74800
O1228       O  0.68799867  0.29165744  0.32286212    -0.66700
O1229       O  0.71560859  0.31998608  0.29065680    -0.53900
C1230       C  0.69398440  0.31359455  0.31420908     0.73200
Zr1231     Zr  0.70770816  0.25181427  0.30781766     2.77500
O1232       O  0.65076565  0.25106711  0.31504002    -0.97500
O1233       O  0.71584379  0.25200422  0.37668284    -0.78300
Zr1234     Zr  0.70428100  0.25194519  0.19396269     2.70100
O1235       O  0.64711213  0.25212710  0.19306246    -0.79600
O1236       O  0.70753916  0.25065909  0.12458242    -0.98600
Zr1237     Zr  0.75140068  0.29827806  0.24931266     2.21500
Zr1238     Zr  0.75300470  0.20647196  0.24852098     2.11100
O1239       O  0.70568115  0.22909312  0.25085871    -2.47300
O1240       O  0.70477388  0.27481112  0.25102967    -0.79300
O1241       O  0.75438244  0.22870488  0.30649371    -0.71500
O1242       O  0.75023521  0.27589634  0.19126350    -2.32500
O1243       O  0.75378990  0.27571007  0.30704985    -2.28700
O1244       O  0.75086700  0.22892460  0.19072354    -0.73300
H1245       H  0.81836562  0.21966598  0.24531377     0.78700
H1246       H  0.74953536  0.28632509  0.16927788     0.79800
H1247       H  0.68745100  0.21885935  0.25171122     0.82000
H1248       H  0.75435417  0.28604553  0.32913185     0.79600
H1249       H  0.77673451  0.24245179  0.11392308     0.42600
H1250       H  0.71690575  0.23490521  0.11881946     0.41600
H1251       H  0.64101367  0.24943879  0.22001933     0.41300
H1252       H  0.64328786  0.23954261  0.29556376     0.39200
H1253       H  0.72144039  0.23531714  0.38307395     0.42400
H1254       H  0.81813316  0.25335970  0.38177900     0.37100
H1255       H  0.86427540  0.25018722  0.27939252     0.43300
H1256       H  0.86071811  0.23885940  0.20096827     0.39700
H1257       H  0.64691875  0.24303579  0.33981781     0.44600
H1258       H  0.78703236  0.23838490  0.37980616     0.43300
H1259       H  0.85853860  0.24804756  0.15874174     0.43500
H1260       H  0.68542101  0.24917045  0.11607729     0.43800
C1261       C  0.57494964  0.08385628  0.08658829    -0.11700
C1262       C  0.58476194  0.10475440  0.06714909     0.03700
C1263       C  0.60435749  0.12117032  0.08552902    -0.12300
C1264       C  0.61485488  0.11711864  0.12286558     0.20200
C1265       C  0.60496515  0.09650970  0.14247734    -0.09300
C1266       C  0.58518197  0.08012422  0.12432922    -0.02300
H1267       H  0.61197141  0.13704466  0.07035468     0.05100
C1268       C  0.63598978  0.13477997  0.14066967     0.20600
H1269       H  0.57806505  0.06420635  0.13971970     0.10300
C1270       C  0.62423045  0.14963749  0.16948065    -0.15700
C1271       C  0.64292811  0.16767690  0.18514627     0.03300
C1272       C  0.67397008  0.17085324  0.17215544    -0.11000
C1273       C  0.68602957  0.15566359  0.14395522    -0.01000
C1274       C  0.66712305  0.13783479  0.12782662    -0.06200
H1275       H  0.60027741  0.14740082  0.17937319     0.06300
H1276       H  0.70993962  0.15799634  0.13396335     0.09700
Br1277     Br  0.61892376  0.08938090  0.19332456    -0.05900
Br1278     Br  0.57469841  0.11139590  0.01477909    -0.02800
Br1279     Br  0.62534706  0.18716569  0.22484110     0.00000
Br1280     Br  0.68458785  0.11811272  0.08833600    -0.04300
C1281       C  0.58241358  0.08277231  0.42294008    -0.11700
C1282       C  0.61474271  0.08463841  0.43140026     0.03700
C1283       C  0.63280192  0.10261360  0.41437622    -0.12300
C1284       C  0.61920773  0.11871116  0.38864280     0.18600
C1285       C  0.58695148  0.11690423  0.38017492    -0.09300
C1286       C  0.56869147  0.09921071  0.39775503    -0.02300
H1287       H  0.65760325  0.10398583  0.42106407     0.05100
C1288       C  0.63937361  0.13676574  0.37009399     0.20600
H1289       H  0.54389354  0.09789029  0.39101311     0.10300
C1290       C  0.65349359  0.13132474  0.33506057    -0.15700
C1291       C  0.67290105  0.14790058  0.31651186     0.03300
C1292       C  0.67875635  0.17047545  0.33350104    -0.11000
C1293       C  0.66458685  0.17562393  0.36892160    -0.01000
C1294       C  0.64506282  0.15907107  0.38712452    -0.06200
H1295       H  0.64901148  0.11414888  0.32182642     0.06300
H1296       H  0.66854857  0.19272273  0.38261563     0.09700
Br1297     Br  0.56718847  0.13777094  0.34404308    -0.05900
Br1298     Br  0.63508701  0.06391101  0.46735618    -0.02800
Br1299     Br  0.68849650  0.13873210  0.26718055     0.00000
Br1300     Br  0.62630237  0.16791108  0.43488303    -0.04300
C1301       C  0.67451961  0.33279930  0.16700927    -0.11700
C1302       C  0.66273126  0.33074108  0.12932460     0.03700
C1303       C  0.64322266  0.34856450  0.11448220    -0.12300
C1304       C  0.63554626  0.36872728  0.13620696     0.18600
C1305       C  0.64772064  0.37110609  0.17339459    -0.09300
C1306       C  0.66699578  0.35323315  0.18847730    -0.02300
H1307       H  0.63434268  0.34688039  0.08558395     0.05100
C1308       C  0.61526653  0.38728034  0.11922350     0.20600
H1309       H  0.67563572  0.35511970  0.21743684     0.10300
C1310       C  0.58278432  0.38327492  0.11640253    -0.15700
C1311       C  0.56299237  0.40051691  0.10024063     0.03300
C1312       C  0.57584581  0.42214137  0.08644028    -0.11000
C1313       C  0.60838339  0.42601949  0.08940416    -0.01000
C1314       C  0.62806297  0.40877920  0.10536603    -0.06200
H1315       H  0.57278813  0.36677358  0.12717480     0.06300
H1316       H  0.61867641  0.44240700  0.07858067     0.09700
Br1317     Br  0.63823630  0.39828093  0.20475352    -0.05900
Br1318     Br  0.67381889  0.30497828  0.09568250    -0.02800
Br1319     Br  0.51861469  0.39420743  0.10001749     0.00000
Br1320     Br  0.67238019  0.41508776  0.10663276    -0.04300
C1321       C  0.82285855  0.17175568  0.15813124    -0.11700
C1322       C  0.83165810  0.17355291  0.11924175     0.03700
C1323       C  0.85089963  0.15604577  0.10292786    -0.12300
C1324       C  0.86100295  0.13641667  0.12445604     0.18600
C1325       C  0.85101873  0.13392851  0.16248959    -0.09300
C1326       C  0.83223491  0.15153799  0.17909114    -0.02300
H1327       H  0.85786036  0.15764682  0.07325733     0.05100
C1328       C  0.88192649  0.11855473  0.10695399     0.20600
H1329       H  0.82558363  0.14966667  0.20882577     0.10300
C1330       C  0.91456484  0.12220545  0.10787890    -0.15700
C1331       C  0.93513137  0.10503473  0.09306756     0.03300
C1332       C  0.92288522  0.08387135  0.07694564    -0.11000
C1333       C  0.89018459  0.08032766  0.07624617    -0.01000
C1334       C  0.86975171  0.09743000  0.09105048    -0.06200
H1335       H  0.92404712  0.13826846  0.12079986     0.06300
H1336       H  0.88042617  0.06417194  0.06391848     0.09700
Br1337     Br  0.86287429  0.10677552  0.19267270    -0.05900
Br1338     Br  0.81671952  0.19850613  0.08626568    -0.02800
Br1339     Br  0.97951134  0.11059741  0.09804969     0.00000
Br1340     Br  0.82544363  0.09101397  0.08953105    -0.04300
C1341       C  0.92835845  0.42119114  0.41491465    -0.11700
C1342       C  0.92707617  0.39720555  0.42817378     0.03700
C1343       C  0.90846845  0.38041612  0.40898369    -0.12300
C1344       C  0.89097664  0.38676671  0.37670434     0.18600
C1345       C  0.89230786  0.41035168  0.36315182    -0.09300
C1346       C  0.91087391  0.42723366  0.38206638    -0.02300
H1347       H  0.90728869  0.36224691  0.41960873     0.05100
C1348       C  0.87080416  0.36860688  0.35833035     0.20600
H1349       H  0.91149736  0.44525745  0.37082873     0.10300
C1350       C  0.83812889  0.36994847  0.36292900    -0.15700
C1351       C  0.81837634  0.35249915  0.34725957     0.03300
C1352       C  0.83132202  0.33340144  0.32634864    -0.11000
C1353       C  0.86409532  0.33197638  0.32213968    -0.01000
C1354       C  0.88382279  0.34940514  0.33788129    -0.06200
H1355       H  0.82803610  0.38438194  0.37945069     0.06300
H1356       H  0.87437714  0.31733283  0.30627297     0.09700
Br1357     Br  0.86948530  0.42027335  0.31861610    -0.05900
Br1358     Br  0.94869254  0.38560310  0.47267762    -0.02800
Br1359     Br  0.77435593  0.35443024  0.35826751     0.00000
Br1360     Br  0.92831514  0.34660226  0.33017058    -0.04300
C1361       C  0.92942221  0.08346850  0.41343832    -0.11700
C1362       C  0.92462021  0.08463539  0.37358855     0.03700
C1363       C  0.90476029  0.10209010  0.35823637    -0.12300
C1364       C  0.88973692  0.11867116  0.38198251     0.18600
C1365       C  0.89496544  0.11783259  0.42167556    -0.09300
C1366       C  0.91471569  0.10036270  0.43705972    -0.02300
H1367       H  0.90133576  0.10295329  0.32758860     0.05100
C1368       C  0.86941307  0.13710185  0.36466408     0.20600
H1369       H  0.91805774  0.09964994  0.46774091     0.10300
C1370       C  0.83845284  0.13133813  0.35441043    -0.15700
C1371       C  0.81875054  0.14839512  0.33753151     0.03300
C1372       C  0.83015606  0.17181493  0.33067890    -0.11000
C1373       C  0.86126301  0.17736891  0.34120168    -0.01000
C1374       C  0.88083512  0.16025776  0.35771979    -0.06200
H1375       H  0.82955272  0.11349079  0.35972890     0.06300
H1376       H  0.87075656  0.19503303  0.33584698     0.09700
Br1377     Br  0.87526929  0.13990886  0.45600108    -0.05900
Br1378     Br  0.94624470  0.06400824  0.33869956    -0.02800
Br1379     Br  0.77638940  0.13863794  0.32622207     0.00000
Br1380     Br  0.92337867  0.16909451  0.36921161    -0.04300
C1381       C  0.57875196  0.42028482  0.42370553    -0.11700
C1382       C  0.56507777  0.40470771  0.39676397     0.03700
C1383       C  0.58352611  0.38712662  0.37927754    -0.12300
C1384       C  0.61520865  0.38417256  0.38952211     0.18600
C1385       C  0.62823303  0.39889629  0.41810286    -0.09300
C1386       C  0.61022339  0.41712779  0.43431414    -0.02300
H1387       H  0.57316463  0.37573160  0.35763351     0.05100
C1388       C  0.63467019  0.36609799  0.36968644     0.20600
H1389       H  0.62061186  0.42857190  0.45588571     0.10300
C1390       C  0.65931454  0.37372595  0.34605791    -0.15700
C1391       C  0.67889477  0.35733970  0.32746488     0.03300
C1392       C  0.67410641  0.33239339  0.33269176    -0.11000
C1393       C  0.64893421  0.32501459  0.35627475    -0.01000
C1394       C  0.62932072  0.34151535  0.37438489    -0.06200
H1395       H  0.66334231  0.39269002  0.34207391     0.06300
H1396       H  0.64422276  0.30620913  0.36081790     0.09700
Br1397     Br  0.66988951  0.39381861  0.43741742    -0.05900
Br1398     Br  0.52159091  0.40715665  0.38251659    -0.02800
Br1399     Br  0.71111780  0.37106896  0.29570675     0.00000
Br1400     Br  0.59598391  0.32958946  0.40608797    -0.04300
C1401       C  0.92414414  0.42244122  0.08171274    -0.11700
C1402       C  0.92444292  0.41924391  0.12158484     0.03700
C1403       C  0.90511825  0.40188175  0.13816644    -0.12300
C1404       C  0.88550446  0.38763057  0.11537495     0.18600
C1405       C  0.88556740  0.39058328  0.07546257    -0.09300
C1406       C  0.90486351  0.40795444  0.05889599    -0.02300
H1407       H  0.90546178  0.39938922  0.16886300     0.05100
C1408       C  0.86567532  0.36933009  0.13360101     0.20600
H1409       H  0.90436879  0.41049511  0.02822313     0.10300
C1410       C  0.83383162  0.37407279  0.14023687    -0.15700
C1411       C  0.81424794  0.35674965  0.15664394     0.03300
C1412       C  0.82671922  0.33421449  0.16670141    -0.11000
C1413       C  0.85874418  0.32968439  0.15994122    -0.01000
C1414       C  0.87818048  0.34703739  0.14366839    -0.06200
H1415       H  0.82413050  0.39122288  0.13215458     0.06300
H1416       H  0.86883538  0.31259977  0.16764729     0.09700
Br1417     Br  0.85982817  0.37117556  0.04273018    -0.05900
Br1418     Br  0.95175033  0.43749441  0.15413611    -0.02800
Br1419     Br  0.77051861  0.36449578  0.16205306     0.00000
Br1420     Br  0.92159018  0.33952452  0.13506074    -0.04300
O1421       O  0.93574779  0.46300790  0.57202020    -0.75100
O1422       O  0.96434154  0.43488116  0.54008568    -0.54000
C1423       C  0.94275059  0.44131016  0.56352709     0.78700
O1424       O  0.94292572  0.04269443  0.92081106    -0.59700
O1425       O  0.96759280  0.07054362  0.95793664    -0.52700
C1426       C  0.94822588  0.06437061  0.93145807     0.70700
O1427       O  0.94056783  0.46216744  0.92500109    -0.74200
O1428       O  0.96754417  0.43443695  0.95913642    -0.54800
C1429       C  0.94671270  0.44040129  0.93439244     0.76700
O1430       O  0.93520134  0.04330919  0.56862798    -0.59400
O1431       O  0.96605723  0.07115838  0.53912420    -0.52500
C1432       C  0.94305654  0.06499199  0.56088365     0.73300
Zr1433     Zr  0.95273480  0.50303019  0.55387445     2.54700
O1434       O  0.89567638  0.50223934  0.54915965    -0.79900
O1435       O  0.95089231  0.00541455  0.62330215    -0.93300
Zr1436     Zr  0.95895337  0.50245234  0.94000447     2.64700
O1437       O  0.90225756  0.50242903  0.93036678    -0.98300
O1438       O  0.96956059  0.00103051  0.87172012    -0.80400
O1439       O  0.95482162  0.47987984  0.49723681    -0.83700
O1440       O  0.95510311  0.02550913  0.49656473    -2.18400
O1441       O  0.56191381  0.04324364  0.57794905    -0.67100
O1442       O  0.53591951  0.07102225  0.54244837    -0.51700
C1443       C  0.55620594  0.06491951  0.56781146     0.71700
O1444       O  0.56973046  0.46133628  0.93427810    -0.60000
O1445       O  0.53720518  0.43393209  0.96234302    -0.52000
C1446       C  0.56068019  0.43977086  0.94122359     0.73500
O1447       O  0.57146897  0.04203641  0.93380326    -0.71400
O1448       O  0.53865665  0.07010150  0.95923032    -0.50100
C1449       C  0.56285568  0.06375467  0.93971449     0.74800
O1450       O  0.56305478  0.46268912  0.57731362    -0.66700
O1451       O  0.53545011  0.43453149  0.54409171    -0.53900
C1452       C  0.55651473  0.44091258  0.56842006     0.73200
Zr1453     Zr  0.54525849  0.00283262  0.56132326     2.77500
O1454       O  0.60206092  0.00253912  0.56980979    -0.97500
O1455       O  0.53685398  0.00276191  0.63013613    -0.78300
Zr1456     Zr  0.55168412  0.00198795  0.94782388     2.70100
O1457       O  0.60884245  0.00105589  0.94935255    -0.79600
O1458       O  0.55075546  0.00247975  0.87825848    -0.98600
Zr1459     Zr  0.50155333  0.45687646  0.00147111     2.21500
Zr1460     Zr  0.00226950  0.04841195  0.49994351     2.11100
O1461       O  0.54920393  0.02532785  0.00422705    -2.47300
O1462       O  0.54886609  0.47947019  0.00502996    -0.79300
O1463       O  0.99912663  0.02642734  0.55819041    -0.71500
O1464       O  0.50504137  0.47885461  0.94325473    -2.32500
O1465       O  0.49878217  0.47950205  0.55912930    -2.28700
O1466       O  0.00560778  0.02572046  0.94248243    -0.73300
H1467       H  0.93678133  0.03565375  0.99503665     0.78700
H1468       H  0.50603451  0.46829263  0.92144832     0.79800
H1469       H  0.56759146  0.03541312  0.50559731     0.82000
H1470       H  0.49772422  0.46921380  0.58126501     0.79600
H1471       H  0.94870454  0.49856968  0.85980725     0.42600
H1472       H  0.57274461  0.00598347  0.87081439     0.41600
H1473       H  0.61420355  0.50286647  0.97673386     0.41300
H1474       H  0.61003721  0.01512478  0.55241261     0.39200
H1475       H  0.52535734  0.01777169  0.63529595     0.42400
H1476       H  0.96630318  0.49345118  0.63220736     0.37100
H1477       H  0.89140395  0.50201340  0.52134922     0.43300
H1478       H  0.89437785  0.01575841  0.94627127     0.39700
H1479       H  0.60554194  0.00900166  0.59580741     0.44600
H1480       H  0.93017431  0.49858077  0.63025589     0.43300
H1481       H  0.89927110  0.50790245  0.90371249     0.43500
H1482       H  0.54744096  0.98561043  0.87075937     0.43800
O1483       O  0.82007497  0.29274754  0.81583794    -0.75100
O1484       O  0.78762810  0.32065950  0.78938101    -0.54000
C1485       C  0.81154719  0.31443584  0.80955877     0.78700
O1486       O  0.81147097  0.21272225  0.66883337    -0.59700
O1487       O  0.78636279  0.18458643  0.70485156    -0.52700
C1488       C  0.80544787  0.19091822  0.67817256     0.70700
O1489       O  0.81443677  0.29342412  0.67528267    -0.74200
O1490       O  0.78594929  0.32108767  0.70813310    -0.54800
C1491       C  0.80749587  0.31509222  0.68428230     0.76700
O1492       O  0.81798286  0.21256844  0.82045197    -0.59400
O1493       O  0.78931923  0.18450357  0.78866891    -0.52500
C1494       C  0.81097522  0.19075544  0.81229243     0.73300
Zr1495     Zr  0.80039328  0.25259209  0.80336469     2.54700
O1496       O  0.85754512  0.25166542  0.80638331    -0.79900
O1497       O  0.79610017  0.25404681  0.87263591    -0.93300
Zr1498     Zr  0.79689215  0.25290271  0.68972774     2.64700
O1499       O  0.85402417  0.25273824  0.68545774    -0.98300
O1500       O  0.79105107  0.25576624  0.62070379    -0.80400
O1501       O  0.79871037  0.27571102  0.74672083    -0.83700
O1502       O  0.79997932  0.22973582  0.74631095    -2.18400
O1503       O  0.69118777  0.21123561  0.82388609    -0.67100
O1504       O  0.71889202  0.18354736  0.79039083    -0.51700
C1505       C  0.69765263  0.18952050  0.81467557     0.71700
O1506       O  0.68658502  0.29195084  0.67691831    -0.60000
O1507       O  0.71502983  0.32014068  0.70895110    -0.52000
C1508       C  0.69347882  0.31374985  0.68518187     0.73500
O1509       O  0.68556216  0.21162265  0.67998947    -0.71400
O1510       O  0.71710841  0.18392685  0.70869992    -0.50100
C1511       C  0.69370928  0.19001941  0.68767405     0.74800
O1512       O  0.68799687  0.29165620  0.82286412    -0.66700
O1513       O  0.71560677  0.31998478  0.79065860    -0.53900
C1514       C  0.69398238  0.31359325  0.81421075     0.73200
Zr1515     Zr  0.70770870  0.25181404  0.80781917     2.77500
O1516       O  0.65076634  0.25106430  0.81504238    -0.97500
O1517       O  0.71584348  0.25200594  0.87668465    -0.78300
Zr1518     Zr  0.70428015  0.25194547  0.69396349     2.70100
O1519       O  0.64711113  0.25212640  0.69306615    -0.79600
O1520       O  0.70753573  0.25065962  0.62458294    -0.98600
Zr1521     Zr  0.75139991  0.29827833  0.74931309     2.21500
Zr1522     Zr  0.75300521  0.20647241  0.74852095     2.11100
O1523       O  0.70568175  0.22909355  0.75085958    -2.47300
O1524       O  0.70477356  0.27481079  0.75103100    -0.79300
O1525       O  0.75438271  0.22870438  0.80649454    -0.71500
O1526       O  0.75023423  0.27589678  0.69126350    -2.32500
O1527       O  0.75378980  0.27571068  0.80705050    -2.28700
O1528       O  0.75086667  0.22892525  0.69072360    -0.73300
H1529       H  0.81836593  0.21966699  0.74531395     0.78700
H1530       H  0.74953415  0.28632545  0.66927801     0.79800
H1531       H  0.68745245  0.21886007  0.75171211     0.82000
H1532       H  0.75435409  0.28604644  0.82913235     0.79600
H1533       H  0.77673202  0.24245296  0.61392407     0.42600
H1534       H  0.71690786  0.23490758  0.61881954     0.41600
H1535       H  0.64101346  0.24943058  0.72002163     0.41300
H1536       H  0.64328910  0.23953962  0.79556577     0.39200
H1537       H  0.72142672  0.23531681  0.88307970     0.42400
H1538       H  0.81811681  0.25336072  0.88178535     0.37100
H1539       H  0.86427944  0.25018846  0.77941265     0.43300
H1540       H  0.86071900  0.23886460  0.70097010     0.39700
H1541       H  0.64692027  0.24303267  0.83981974     0.44600
H1542       H  0.78702008  0.23838181  0.87980292     0.43300
H1543       H  0.85853793  0.24804904  0.65874159     0.43500
H1544       H  0.68541774  0.24916628  0.61607921     0.43800
C1545       C  0.57495014  0.08385657  0.58658672    -0.11700
C1546       C  0.58476267  0.10475457  0.56714750     0.03700
C1547       C  0.60435922  0.12117003  0.58552702    -0.12300
C1548       C  0.61485660  0.11711829  0.62286366     0.20200
C1549       C  0.60496570  0.09650974  0.64247578    -0.09300
C1550       C  0.58518234  0.08012448  0.62432760    -0.02300
H1551       H  0.61197327  0.13704433  0.57035264     0.05100
C1552       C  0.63599138  0.13477969  0.64066810     0.20600
H1553       H  0.57806479  0.06420683  0.63971825     0.10300
C1554       C  0.62423249  0.14963559  0.66948155    -0.15700
C1555       C  0.64292972  0.16767502  0.68514791     0.03300
C1556       C  0.67397074  0.17085324  0.67215504    -0.11000
C1557       C  0.68602988  0.15566532  0.64395218    -0.01000
C1558       C  0.66712385  0.13783637  0.62782303    -0.06200
H1559       H  0.60028000  0.14739769  0.67937544     0.06300
H1560       H  0.70993923  0.15799959  0.63395872     0.09700
Br1561     Br  0.61892181  0.08938127  0.69332415    -0.05900
Br1562     Br  0.57469650  0.11139686  0.51477857    -0.02800
Br1563     Br  0.62534943  0.18716174  0.72484585     0.00000
Br1564     Br  0.68458835  0.11811685  0.58832885    -0.04300
C1565       C  0.58241345  0.08277303  0.92294106    -0.11700
C1566       C  0.61474256  0.08463906  0.93140125     0.03700
C1567       C  0.63280188  0.10261427  0.91437728    -0.12300
C1568       C  0.61920782  0.11871177  0.88864357     0.18600
C1569       C  0.58695156  0.11690471  0.88017547    -0.09300
C1570       C  0.56869146  0.09921138  0.89775588    -0.02300
H1571       H  0.65760320  0.10398642  0.92106517     0.05100
C1572       C  0.63937390  0.13676605  0.87009417     0.20600
H1573       H  0.54389358  0.09789091  0.89101376     0.10300
C1574       C  0.65349380  0.13132457  0.83506092    -0.15700
C1575       C  0.67290134  0.14790009  0.81651157     0.03300
C1576       C  0.67875688  0.17047514  0.83350011    -0.11000
C1577       C  0.66458760  0.17562401  0.86892061    -0.01000
C1578       C  0.64506354  0.15907148  0.88712403    -0.06200
H1579       H  0.64901157  0.11414854  0.82182740     0.06300
H1580       H  0.66854955  0.19272287  0.88261435     0.09700
Br1581     Br  0.56718839  0.13777047  0.84404240    -0.05900
Br1582     Br  0.63508645  0.06391123  0.96735693    -0.02800
Br1583     Br  0.68849665  0.13873044  0.76718076     0.00000
Br1584     Br  0.62630399  0.16791215  0.93488252    -0.04300
C1585       C  0.67451865  0.33280023  0.66701126    -0.11700
C1586       C  0.66273121  0.33074169  0.62932625     0.03700
C1587       C  0.64322432  0.34856560  0.61448202    -0.12300
C1588       C  0.63554843  0.36872900  0.63620553     0.18600
C1589       C  0.64772116  0.37110788  0.67339385    -0.09300
C1590       C  0.66699498  0.35323461  0.68847831    -0.02300
H1591       H  0.63434479  0.34688114  0.58558362     0.05100
C1592       C  0.61526814  0.38728162  0.61922194     0.20600
H1593       H  0.67563394  0.35512128  0.71743827     0.10300
C1594       C  0.58278620  0.38327499  0.61640039    -0.15700
C1595       C  0.56299304  0.40051700  0.60024083     0.03300
C1596       C  0.57584483  0.42214268  0.58644365    -0.11000
C1597       C  0.60838205  0.42602228  0.58940879    -0.01000
C1598       C  0.62806306  0.40878191  0.60536787    -0.06200
H1599       H  0.57279113  0.36677275  0.62717065     0.06300
H1600       H  0.61867376  0.44241089  0.57858776     0.09700
Br1601     Br  0.63823488  0.39828318  0.70475107    -0.05900
Br1602     Br  0.67381729  0.30497726  0.59568656    -0.02800
Br1603     Br  0.51861584  0.39420612  0.60001655     0.00000
Br1604     Br  0.67237992  0.41509250  0.60663475    -0.04300
C1605       C  0.82285959  0.17175655  0.65813199    -0.11700
C1606       C  0.83165170  0.17355106  0.61923980     0.03700
C1607       C  0.85089229  0.15604378  0.60292436    -0.12300
C1608       C  0.86100243  0.13641746  0.62445441     0.18600
C1609       C  0.85102632  0.13393233  0.66249156    -0.09300
C1610       C  0.83224296  0.15154173  0.67909416    -0.02300
H1611       H  0.85784704  0.15764262  0.57325146     0.05100
C1612       C  0.88192567  0.11855557  0.60695153     0.20600
H1613       H  0.82559760  0.14967278  0.70883113     0.10300
C1614       C  0.91456351  0.12220952  0.60786694    -0.15700
C1615       C  0.93513051  0.10503877  0.59305667     0.03300
C1616       C  0.92288535  0.08387195  0.57694478    -0.11000
C1617       C  0.89018507  0.08032489  0.57625562    -0.01000
C1618       C  0.86975180  0.09742716  0.59105948    -0.06200
H1619       H  0.92404526  0.13827514  0.62078021     0.06300
H1620       H  0.88042701  0.06416655  0.56393633     0.09700
Br1621     Br  0.86289335  0.10678375  0.69267817    -0.05900
Br1622     Br  0.81670336  0.19850045  0.58626307    -0.02800
Br1623     Br  0.97951009  0.11060697  0.59802778     0.00000
Br1624     Br  0.82544465  0.09100579  0.58955579    -0.04300
C1625       C  0.92835650  0.42119184  0.91491639    -0.11700
C1626       C  0.92707459  0.39720598  0.92817450     0.03700
C1627       C  0.90846851  0.38041649  0.90898213    -0.12300
C1628       C  0.89097732  0.38676745  0.87670244     0.18600
C1629       C  0.89230677  0.41035310  0.86315257    -0.09300
C1630       C  0.91087178  0.42723492  0.88206866    -0.02300
H1631       H  0.90728927  0.36224697  0.91960586     0.05100
C1632       C  0.87080611  0.36860747  0.85832671     0.20600
H1633       H  0.91149442  0.44525906  0.87083233     0.10300
C1634       C  0.83813082  0.36994731  0.86292694    -0.15700
C1635       C  0.81837933  0.35249714  0.84725802     0.03300
C1636       C  0.83132582  0.33340081  0.82634485    -0.11000
C1637       C  0.86409918  0.33197737  0.82213418    -0.01000
C1638       C  0.88382589  0.34940657  0.83787640    -0.06200
H1639       H  0.82803727  0.38437974  0.87945027     0.06300
H1640       H  0.87438162  0.31733449  0.80626652     0.09700
Br1641     Br  0.86948320  0.42027645  0.81861875    -0.05900
Br1642     Br  0.94868841  0.38560312  0.97268015    -0.02800
Br1643     Br  0.77435922  0.35442431  0.85827029     0.00000
Br1644     Br  0.92831871  0.34660451  0.83016654    -0.04300
C1645       C  0.92942139  0.08346810  0.91344042    -0.11700
C1646       C  0.92461973  0.08463541  0.87359064     0.03700
C1647       C  0.90476017  0.10209035  0.85823864    -0.12300
C1648       C  0.88973641  0.11867102  0.88198498     0.18600
C1649       C  0.89496449  0.11783204  0.92167812    -0.09300
C1650       C  0.91471477  0.10036211  0.93706208    -0.02300
H1651       H  0.90133605  0.10295391  0.82759082     0.05100
C1652       C  0.86941320  0.13710201  0.86466634     0.20600
H1653       H  0.91805661  0.09964905  0.96774330     0.10300
C1654       C  0.83845301  0.13133876  0.85441176    -0.15700
C1655       C  0.81875143  0.14839606  0.83753234     0.03300
C1656       C  0.83015789  0.17181556  0.83067911    -0.11000
C1657       C  0.86126497  0.17736901  0.84120266    -0.01000
C1658       C  0.88083619  0.16025764  0.85772209    -0.06200
H1659       H  0.82955224  0.11349161  0.85973034     0.06300
H1660       H  0.87075916  0.19503295  0.83584813     0.09700
Br1661     Br  0.87526745  0.13990748  0.95600413    -0.05900
Br1662     Br  0.94624369  0.06400836  0.83870120    -0.02800
Br1663     Br  0.77638953  0.13864003  0.82622425     0.00000
Br1664     Br  0.92337972  0.16909350  0.86921708    -0.04300
C1665       C  0.57874927  0.42028356  0.92370555    -0.11700
C1666       C  0.56507433  0.40470800  0.89676250     0.03700
C1667       C  0.58352176  0.38712685  0.87927463    -0.12300
C1668       C  0.61520424  0.38417179  0.88951895     0.18600
C1669       C  0.62822891  0.39889401  0.91810147    -0.09300
C1670       C  0.61021999  0.41712496  0.93431497    -0.02300
H1671       H  0.57315977  0.37573281  0.85762965     0.05100
C1672       C  0.63466531  0.36609716  0.86968271     0.20600
H1673       H  0.62060877  0.42856795  0.95588787     0.10300
C1674       C  0.65930950  0.37372484  0.84605369    -0.15700
C1675       C  0.67889123  0.35733836  0.82746345     0.03300
C1676       C  0.67410365  0.33239214  0.83269226    -0.11000
C1677       C  0.64893151  0.32501360  0.85627572    -0.01000
C1678       C  0.62931727  0.34151463  0.87438423    -0.06200
H1679       H  0.66333678  0.39268886  0.84206831     0.06300
H1680       H  0.64422101  0.30620820  0.86082095     0.09700
Br1681     Br  0.66988561  0.39381617  0.93741403    -0.05900
Br1682     Br  0.52158769  0.40715991  0.88251548    -0.02800
Br1683     Br  0.71111669  0.37106720  0.79570842     0.00000
Br1684     Br  0.59598190  0.32958975  0.90609062    -0.04300
C1685       C  0.92414610  0.42243995  0.58171518    -0.11700
C1686       C  0.92444313  0.41924327  0.62158739     0.03700
C1687       C  0.90511674  0.40188217  0.63816856    -0.12300
C1688       C  0.88550273  0.38763159  0.61537655     0.18600
C1689       C  0.88556751  0.39058339  0.57546408    -0.09300
C1690       C  0.90486596  0.40795314  0.55889780    -0.02300
H1691       H  0.90545913  0.39938995  0.66886520     0.05100
C1692       C  0.86567306  0.36933147  0.63360203     0.20600
H1693       H  0.90437270  0.41049320  0.52822478     0.10300
C1694       C  0.83382993  0.37407492  0.64023988    -0.15700
C1695       C  0.81424594  0.35675161  0.65664580     0.03300
C1696       C  0.82671649  0.33421578  0.66670079    -0.11000
C1697       C  0.85874102  0.32968501  0.65993849    -0.01000
C1698       C  0.87817742  0.34703805  0.64366606    -0.06200
H1699       H  0.82412942  0.39122558  0.63215954     0.06300
H1700       H  0.86883179  0.31259987  0.66764241     0.09700
Br1701     Br  0.85982600  0.37117733  0.54273175    -0.05900
Br1702     Br  0.95175091  0.43749270  0.65413949    -0.02800
Br1703     Br  0.77051695  0.36449830  0.66205561     0.00000
Br1704     Br  0.92158631  0.33952471  0.63505363    -0.04300
O1705       O  0.93574823  0.96300808  0.07201974    -0.75100
O1706       O  0.96434295  0.93488136  0.04008637    -0.54000
C1707       C  0.94275151  0.94131035  0.06352712     0.78700
O1708       O  0.94292715  0.54269529  0.42081120    -0.59700
O1709       O  0.96759304  0.57054410  0.45793858    -0.52700
C1710       C  0.94822680  0.56437137  0.43145905     0.70700
O1711       O  0.94056775  0.96216720  0.42500017    -0.74200
O1712       O  0.96754357  0.93443706  0.45913678    -0.54800
C1713       C  0.94671248  0.94040113  0.43439203     0.76700
O1714       O  0.93520097  0.54330877  0.06862820    -0.59400
O1715       O  0.96605745  0.57115769  0.03912433    -0.52500
C1716       C  0.94305641  0.56499139  0.06088330     0.73300
Zr1717     Zr  0.95273537  0.00303046  0.05387441     2.54700
O1718       O  0.89567711  0.00224199  0.04915604    -0.79900
O1719       O  0.95089335  0.50541221  0.12330173    -0.93300
Zr1720     Zr  0.95895224  0.00245232  0.44000431     2.64700
O1721       O  0.90225652  0.00243121  0.43036386    -0.98300
O1722       O  0.96956219  0.50103238  0.37172050    -0.80400
O1723       O  0.95482254  0.97987976  0.99723721    -0.83700
O1724       O  0.95510450  0.52550905  0.99656470    -2.18400
O1725       O  0.56191628  0.54324206  0.07794910    -0.67100
O1726       O  0.53591966  0.57102113  0.04245185    -0.51700
C1727       C  0.55620728  0.56491806  0.06781328     0.71700
O1728       O  0.56973139  0.96133625  0.43427915    -0.60000
O1729       O  0.53720425  0.93393202  0.46234043    -0.52000
C1730       C  0.56068013  0.93977082  0.44122239     0.73500
O1731       O  0.57146972  0.54203608  0.43380371    -0.71400
O1732       O  0.53865691  0.57010101  0.45923020    -0.50100
C1733       C  0.56285609  0.56375432  0.43971449     0.74800
O1734       O  0.56305755  0.96268959  0.07731067    -0.66700
O1735       O  0.53545082  0.93453182  0.04409176    -0.53900
C1736       C  0.55651656  0.94091299  0.06841849     0.73200
Zr1737     Zr  0.54525874  0.50283155  0.06132319     2.77500
O1738       O  0.60206053  0.50253846  0.06981673    -0.97500
O1739       O  0.53684825  0.50276127  0.13013500    -0.78300
Zr1740     Zr  0.55168467  0.50198788  0.44782525     2.70100
O1741       O  0.60884299  0.50105470  0.44934906    -0.79600
O1742       O  0.55075702  0.50247743  0.37825996    -0.98600
Zr1743     Zr  0.50155399  0.95687646  0.50147132     2.21500
Zr1744     Zr  0.00227060  0.54841175  0.99994435     2.11100
O1745       O  0.54920388  0.52532774  0.50422846    -2.47300
O1746       O  0.54886648  0.97947048  0.50503090    -0.79300
O1747       O  0.99912693  0.52642692  0.05819060    -0.71500
O1748       O  0.50504175  0.97885436  0.44325465    -2.32500
O1749       O  0.49878282  0.97950210  0.05912948    -2.28700
O1750       O  0.00560816  0.52572062  0.44248335    -0.73300
H1751       H  0.93678159  0.53565422  0.49503704     0.78700
H1752       H  0.50603516  0.96829251  0.42144867     0.79800
H1753       H  0.56759130  0.53541183  0.00559787     0.82000
H1754       H  0.49772512  0.96921360  0.08126591     0.79600
H1755       H  0.94869728  0.99859843  0.35980418     0.42600
H1756       H  0.57274726  0.50597695  0.37081624     0.41600
H1757       H  0.61420487  0.00286442  0.47673130     0.41300
H1758       H  0.61003820  0.51512456  0.05242116     0.39200
H1759       H  0.52537339  0.51778046  0.13529729     0.42400
H1760       H  0.96630894  0.99345408  0.13220688     0.37100
H1761       H  0.89140705  0.00196098  0.02134613     0.43300
H1762       H  0.89437879  0.51576500  0.44625721     0.39700
H1763       H  0.60553931  0.50900045  0.09581519     0.44600
H1764       H  0.93017783  0.99857442  0.13025625     0.43300
H1765       H  0.89927338  0.00787765  0.40369481     0.43500
H1766       H  0.54743757  0.48560832  0.37076233     0.43800
O1767       O  0.82007310  0.79274781  0.31583949    -0.75100
O1768       O  0.78762696  0.82065996  0.28938173    -0.54000
C1769       C  0.81154523  0.81443614  0.30956063     0.78700
O1770       O  0.81147199  0.71272191  0.16883374    -0.59700
O1771       O  0.78636240  0.68458608  0.20485019    -0.52700
C1772       C  0.80544829  0.69091785  0.17817197     0.70700
O1773       O  0.81443728  0.79342353  0.17528098    -0.74200
O1774       O  0.78595092  0.82108728  0.20813233    -0.54800
C1775       C  0.80749692  0.81509168  0.18428087     0.76700
O1776       O  0.81798159  0.71256783  0.32045156    -0.59400
O1777       O  0.78931938  0.68450286  0.28866673    -0.52500
C1778       C  0.81097464  0.69075479  0.31229112     0.73300
Zr1779     Zr  0.80039386  0.75259194  0.30336358     2.54700
O1780       O  0.85754605  0.75166502  0.30637391    -0.79900
O1781       O  0.79610659  0.75404673  0.37263541    -0.93300
Zr1782     Zr  0.79689267  0.75290233  0.18972705     2.64700
O1783       O  0.85402475  0.75273770  0.18545941    -0.98300
O1784       O  0.79105207  0.75576511  0.12070285    -0.80400
O1785       O  0.79871147  0.77571098  0.24671982    -0.83700
O1786       O  0.79997933  0.72973544  0.24631020    -2.18400
O1787       O  0.69118805  0.71123574  0.32388520    -0.67100
O1788       O  0.71889268  0.68354723  0.29039098    -0.51700
C1789       C  0.69765308  0.68952054  0.31467537     0.71700
O1790       O  0.68658597  0.79195069  0.17691588    -0.60000
O1791       O  0.71503077  0.82014019  0.20894947    -0.52000
C1792       C  0.69347983  0.81374960  0.18517993     0.73500
O1793       O  0.68556232  0.71162271  0.17998921    -0.71400
O1794       O  0.71710896  0.68392668  0.20869837    -0.50100
C1795       C  0.69370941  0.69001940  0.18767336     0.74800
O1796       O  0.68799745  0.79165683  0.32286140    -0.66700
O1797       O  0.71560812  0.81998540  0.29065683    -0.53900
C1798       C  0.69398339  0.81359389  0.31420850     0.73200
Zr1799     Zr  0.70770893  0.75181424  0.30781784     2.77500
O1800       O  0.65076681  0.75106497  0.31504536    -0.97500
O1801       O  0.71584766  0.75200594  0.37668254    -0.78300
Zr1802     Zr  0.70428074  0.75194552  0.19396225     2.70100
O1803       O  0.64711178  0.75212725  0.19306505    -0.79600
O1804       O  0.70753644  0.75065921  0.12458164    -0.98600
Zr1805     Zr  0.75140094  0.79827828  0.24931207     2.21500
Zr1806     Zr  0.75300512  0.70647220  0.24852004     2.11100
O1807       O  0.70568159  0.72909352  0.25085840    -2.47300
O1808       O  0.70477443  0.77481101  0.25102964    -0.79300
O1809       O  0.75438286  0.72870462  0.30649324    -0.71500
O1810       O  0.75023504  0.77589661  0.19126271    -2.32500
O1811       O  0.75379032  0.77571049  0.30704939    -2.28700
O1812       O  0.75086698  0.72892507  0.19072276    -0.73300
H1813       H  0.81836586  0.71966651  0.24531332     0.78700
H1814       H  0.74953513  0.78632526  0.16927717     0.79800
H1815       H  0.68745181  0.71885994  0.25171105     0.82000
H1816       H  0.75435457  0.78604610  0.32913121     0.79600
H1817       H  0.77672972  0.74245366  0.11392389     0.42600
H1818       H  0.71690759  0.73490682  0.11881850     0.41600
H1819       H  0.64101421  0.74943252  0.22002073     0.41300
H1820       H  0.64328837  0.73954140  0.29556810     0.39200
H1821       H  0.72143235  0.73531707  0.38307656     0.42400
H1822       H  0.81812438  0.75336257  0.38178220     0.37100
H1823       H  0.86427816  0.75019498  0.27940092     0.43300
H1824       H  0.86071888  0.73886306  0.20096948     0.39700
H1825       H  0.64692163  0.74303220  0.33982231     0.44600
H1826       H  0.78702941  0.73838110  0.37980388     0.43300
H1827       H  0.85853918  0.74805025  0.15874248     0.43500
H1828       H  0.68541831  0.74916662  0.11607774     0.43800
C1829       C  0.57495137  0.58385515  0.08658837    -0.11700
C1830       C  0.58476308  0.60475329  0.06714888     0.03700
C1831       C  0.60435914  0.62116916  0.08552814    -0.12300
C1832       C  0.61485694  0.61711764  0.12286463     0.20200
C1833       C  0.60496702  0.59650888  0.14247697    -0.09300
C1834       C  0.58518400  0.58012321  0.12432912    -0.02300
H1835       H  0.61197271  0.63704350  0.07035350     0.05100
C1836       C  0.63599134  0.63477941  0.14066860     0.20600
H1837       H  0.57806716  0.56420538  0.13971977     0.10300
C1838       C  0.62423115  0.64963727  0.16947862    -0.15700
C1839       C  0.64292819  0.66767704  0.18514433     0.03300
C1840       C  0.67397050  0.67085337  0.17215463    -0.11000
C1841       C  0.68603082  0.65566345  0.14395532    -0.01000
C1842       C  0.66712490  0.63783440  0.12782647    -0.06200
H1843       H  0.60027787  0.64740058  0.17937035     0.06300
H1844       H  0.70994109  0.65799624  0.13396425     0.09700
Br1845     Br  0.61892465  0.58938040  0.19332476    -0.05900
Br1846     Br  0.57469746  0.61139485  0.01477943    -0.02800
Br1847     Br  0.62534581  0.68716634  0.22483765     0.00000
Br1848     Br  0.68459137  0.61811227  0.08833711    -0.04300
C1849       C  0.58241386  0.58277288  0.42294122    -0.11700
C1850       C  0.61474327  0.58463825  0.43140030     0.03700
C1851       C  0.63280271  0.60261349  0.41437666    -0.12300
C1852       C  0.61920857  0.61871183  0.38864443     0.18600
C1853       C  0.58695193  0.61690592  0.38017809    -0.09300
C1854       C  0.56869163  0.59921242  0.39775807    -0.02300
H1855       H  0.65760425  0.60398502  0.42106367     0.05100
C1856       C  0.63937485  0.63676598  0.37009486     0.20600
H1857       H  0.54389344  0.59789277  0.39101715     0.10300
C1858       C  0.65349486  0.63132442  0.33506161    -0.15700
C1859       C  0.67290201  0.64790013  0.31651193     0.03300
C1860       C  0.67875723  0.67047528  0.33350014    -0.11000
C1861       C  0.66458753  0.67562435  0.36892027    -0.01000
C1862       C  0.64506389  0.65907170  0.38712405    -0.06200
H1863       H  0.64901277  0.61414833  0.32182820     0.06300
H1864       H  0.66854902  0.69272340  0.38261358     0.09700
Br1865     Br  0.56718904  0.63777373  0.34404769    -0.05900
Br1866     Br  0.63508765  0.56390972  0.46735447    -0.02800
Br1867     Br  0.68849641  0.63873149  0.26718025     0.00000
Br1868     Br  0.62630470  0.66791247  0.43488265    -0.04300
C1869       C  0.67451952  0.83280016  0.16700992    -0.11700
C1870       C  0.66273140  0.83074193  0.12932519     0.03700
C1871       C  0.64322380  0.84856571  0.11448198    -0.12300
C1872       C  0.63554827  0.86872897  0.13620602     0.18600
C1873       C  0.64772220  0.87110779  0.17339383    -0.09300
C1874       C  0.66699630  0.85323442  0.18847742    -0.02300
H1875       H  0.63434388  0.84688144  0.08558372     0.05100
C1876       C  0.61526828  0.88728190  0.11922270     0.20600
H1877       H  0.67563610  0.85512103  0.21743701     0.10300
C1878       C  0.58278642  0.88327534  0.11639968    -0.15700
C1879       C  0.56299382  0.90051735  0.10023921     0.03300
C1880       C  0.57584618  0.92214299  0.08644241    -0.11000
C1881       C  0.60838333  0.92602250  0.08940890    -0.01000
C1882       C  0.62806369  0.90878215  0.10536916    -0.06200
H1883       H  0.57279094  0.86677310  0.12716939     0.06300
H1884       H  0.61867548  0.94241104  0.07858822     0.09700
Br1885     Br  0.63823837  0.89828346  0.20475138    -0.05900
Br1886     Br  0.67381830  0.80497855  0.09568406    -0.02800
Br1887     Br  0.51861661  0.89420628  0.10001321     0.00000
Br1888     Br  0.67238048  0.91509266  0.10663848    -0.04300
C1889       C  0.82286012  0.67175618  0.15813100    -0.11700
C1890       C  0.83165981  0.67355375  0.11924156     0.03700
C1891       C  0.85090050  0.65604634  0.10292691    -0.12300
C1892       C  0.86100329  0.63641679  0.12445436     0.18600
C1893       C  0.85101932  0.63392840  0.16248797    -0.09300
C1894       C  0.83223612  0.65153809  0.17909027    -0.02300
H1895       H  0.85786116  0.65764762  0.07325638     0.05100
C1896       C  0.88192665  0.61855489  0.10695174     0.20600
H1897       H  0.82558486  0.64966655  0.20882487     0.10300
C1898       C  0.91456501  0.62220537  0.10787710    -0.15700
C1899       C  0.93513153  0.60503460  0.09306599     0.03300
C1900       C  0.92288537  0.58387145  0.07694335    -0.11000
C1901       C  0.89018466  0.58032791  0.07624346    -0.01000
C1902       C  0.86975176  0.59743028  0.09104792    -0.06200
H1903       H  0.92404736  0.63826817  0.12079866     0.06300
H1904       H  0.88042621  0.56417223  0.06391568     0.09700
Br1905     Br  0.86287412  0.60677449  0.19266960    -0.05900
Br1906     Br  0.81672290  0.69850805  0.08626654    -0.02800
Br1907     Br  0.97951145  0.61059661  0.09805073     0.00000
Br1908     Br  0.82544358  0.59101444  0.08952900    -0.04300
C1909       C  0.92835609  0.92119153  0.41491621    -0.11700
C1910       C  0.92707443  0.89720581  0.42817476     0.03700
C1911       C  0.90846716  0.88041631  0.40898420    -0.12300
C1912       C  0.89097481  0.88676709  0.37670540     0.18600
C1913       C  0.89230442  0.91035243  0.36315432    -0.09300
C1914       C  0.91087044  0.92723434  0.38206895    -0.02300
H1915       H  0.90728825  0.86224686  0.41960836     0.05100
C1916       C  0.87080340  0.86860700  0.35833066     0.20600
H1917       H  0.91149299  0.94525834  0.37083207     0.10300
C1918       C  0.83812823  0.86994635  0.36293234    -0.15700
C1919       C  0.81837669  0.85249650  0.34726264     0.03300
C1920       C  0.83132328  0.83340085  0.32634785    -0.11000
C1921       C  0.86409650  0.83197787  0.32213597    -0.01000
C1922       C  0.88382308  0.84940693  0.33787848    -0.06200
H1923       H  0.82803486  0.88437837  0.37945674     0.06300
H1924       H  0.87437890  0.81733563  0.30626673     0.09700
Br1925     Br  0.86947935  0.92027501  0.31862097    -0.05900
Br1926     Br  0.94869128  0.88560310  0.47267812    -0.02800
Br1927     Br  0.77435653  0.85442365  0.35827490     0.00000
Br1928     Br  0.92831560  0.84660637  0.33016573    -0.04300
C1929       C  0.92942248  0.58346894  0.41344101    -0.11700
C1930       C  0.92462130  0.58463616  0.37359110     0.03700
C1931       C  0.90476143  0.60209079  0.35823865    -0.12300
C1932       C  0.88973696  0.61867135  0.38198459     0.18600
C1933       C  0.89496498  0.61783274  0.42167782    -0.09300
C1934       C  0.91471533  0.60036295  0.43706225    -0.02300
H1935       H  0.90133762  0.60295423  0.32759079     0.05100
C1936       C  0.86941333  0.63710196  0.36466541     0.20600
H1937       H  0.91805687  0.59965004  0.46774352     0.10300
C1938       C  0.83845323  0.63133837  0.35441072    -0.15700
C1939       C  0.81875149  0.64839538  0.33753074     0.03300
C1940       C  0.83015749  0.67181503  0.33067773    -0.11000
C1941       C  0.86126448  0.67736875  0.34120107    -0.01000
C1942       C  0.88083598  0.66025758  0.35772044    -0.06200
H1943       H  0.82955273  0.61349115  0.35972933     0.06300
H1944       H  0.87075846  0.69503272  0.33584621     0.09700
Br1945     Br  0.87526799  0.63990863  0.45600329    -0.05900
Br1946     Br  0.94624650  0.56400943  0.33870217    -0.02800
Br1947     Br  0.77639026  0.63863858  0.32622066     0.00000
Br1948     Br  0.92337962  0.66909365  0.36921381    -0.04300
C1949       C  0.57874964  0.92028369  0.42370402    -0.11700
C1950       C  0.56507541  0.90470811  0.39676031     0.03700
C1951       C  0.58352343  0.88712723  0.37927267    -0.12300
C1952       C  0.61520564  0.88417207  0.38951815     0.18600
C1953       C  0.62822963  0.89889412  0.41810134    -0.09300
C1954       C  0.61022031  0.91712516  0.43431414    -0.02300
H1955       H  0.57316202  0.87573330  0.35762715     0.05100
C1956       C  0.63466712  0.86609757  0.36968218     0.20600
H1957       H  0.62060863  0.92856806  0.45588746     0.10300
C1958       C  0.65931184  0.87372541  0.34605407    -0.15700
C1959       C  0.67889317  0.85733902  0.32746293     0.03300
C1960       C  0.67410487  0.83239277  0.33269032    -0.11000
C1961       C  0.64893229  0.82501411  0.35627292    -0.01000
C1962       C  0.62931831  0.84151501  0.37438204    -0.06200
H1963       H  0.66333957  0.89268946  0.34206969     0.06300
H1964       H  0.64422115  0.80620868  0.36081692     0.09700
Br1965     Br  0.66988554  0.89381545  0.43741633    -0.05900
Br1966     Br  0.52158892  0.90715907  0.38251224    -0.02800
Br1967     Br  0.71111864  0.87106789  0.29570795     0.00000
Br1968     Br  0.59598215  0.82958972  0.40608674    -0.04300
C1969       C  0.92414698  0.92244008  0.08171492    -0.11700
C1970       C  0.92444403  0.91924308  0.12158704     0.03700
C1971       C  0.90511810  0.90188144  0.13816771    -0.12300
C1972       C  0.88550455  0.88763072  0.11537524     0.18600
C1973       C  0.88556947  0.89058286  0.07546283    -0.09300
C1974       C  0.90486724  0.90795323  0.05889713    -0.02300
H1975       H  0.90546043  0.89938894  0.16886429     0.05100
C1976       C  0.86567468  0.86933050  0.13360025     0.20600
H1977       H  0.90437396  0.91049363  0.02822418     0.10300
C1978       C  0.83383188  0.87407452  0.14023952    -0.15700
C1979       C  0.81424764  0.85675140  0.15664557     0.03300
C1980       C  0.82671758  0.83421506  0.16669888    -0.11000
C1981       C  0.85874168  0.82968362  0.15993474    -0.01000
C1982       C  0.87817840  0.84703658  0.14366267    -0.06200
H1983       H  0.82413186  0.89122556  0.13216046     0.06300
H1984       H  0.86883199  0.81259808  0.16763729     0.09700
Br1985     Br  0.85982952  0.87117621  0.04272959    -0.05900
Br1986     Br  0.95175114  0.93749295  0.15413954    -0.02800
Br1987     Br  0.77051919  0.86449930  0.16205825     0.00000
Br1988     Br  0.92158684  0.83952239  0.13504909    -0.04300
O1989       O  0.93574748  0.96300849  0.57201809    -0.75100
O1990       O  0.96434233  0.93488179  0.54008479    -0.54000
C1991       C  0.94275078  0.94131073  0.56352552     0.78700
O1992       O  0.94292578  0.54269514  0.92081252    -0.59700
O1993       O  0.96759384  0.57054429  0.95793728    -0.52700
C1994       C  0.94822627  0.56437131  0.93145937     0.70700
O1995       O  0.94056852  0.96216642  0.92500141    -0.74200
O1996       O  0.96754377  0.93443654  0.95913924    -0.54800
C1997       C  0.94671302  0.94040040  0.93439392     0.76700
O1998       O  0.93519884  0.54330839  0.56862753    -0.59400
O1999       O  0.96605907  0.57115758  0.53913000    -0.52500
C2000       C  0.94305633  0.56499106  0.56088609     0.73300
Zr2001     Zr  0.95273560  0.00303075  0.55387282     2.54700
O2002       O  0.89567738  0.00224357  0.54915432    -0.79900
O2003       O  0.95089149  0.50541587  0.62330354    -0.93300
Zr2004     Zr  0.95895185  0.00245185  0.94000611     2.64700
O2005       O  0.90225584  0.00243029  0.93036860    -0.98300
O2006       O  0.96956503  0.50103038  0.87171926    -0.80400
O2007       O  0.95482268  0.97988018  0.49723537    -0.83700
O2008       O  0.95510275  0.52550902  0.49656672    -2.18400
O2009       O  0.56191247  0.54324321  0.57795129    -0.67100
O2010       O  0.53591981  0.57102216  0.54244936    -0.51700
C2011       C  0.55620551  0.56491914  0.56781321     0.71700
O2012       O  0.56973121  0.96133686  0.93427908    -0.60000
O2013       O  0.53720486  0.93393245  0.96234137    -0.52000
C2014       C  0.56068052  0.93977138  0.94122298     0.73500
O2015       O  0.57147030  0.54203625  0.93380506    -0.71400
O2016       O  0.53865868  0.57010156  0.95923294    -0.50100
C2017       C  0.56285764  0.56375457  0.93971709     0.74800
O2018       O  0.56305859  0.96268996  0.57730982    -0.66700
O2019       O  0.53545160  0.93453193  0.54409182    -0.53900
C2020       C  0.55651766  0.94091331  0.56841803     0.73200
Zr2021     Zr  0.54525717  0.50283223  0.56132507     2.77500
O2022       O  0.60206001  0.50253788  0.56980832    -0.97500
O2023       O  0.53685496  0.50276158  0.63013843    -0.78300
Zr2024     Zr  0.55168425  0.50198768  0.94782310     2.70100
O2025       O  0.60884264  0.50105646  0.94935204    -0.79600
O2026       O  0.55075100  0.50248091  0.87825770    -0.98600
Zr2027     Zr  0.50155354  0.95687670  0.00147142     2.21500
Zr2028     Zr  0.00226944  0.54841154  0.49994638     2.11100
O2029       O  0.54920476  0.52532716  0.00422672    -2.47300
O2030       O  0.54886614  0.97947069  0.00503104    -0.79300
O2031       O  0.99912599  0.52642657  0.55819293    -0.71500
O2032       O  0.50504139  0.97885482  0.94325501    -2.32500
O2033       O  0.49878372  0.97950215  0.55912907    -2.28700
O2034       O  0.00560930  0.52572098  0.94248109    -0.73300
H2035       H  0.93678309  0.53565386  0.99503541     0.78700
H2036       H  0.50603476  0.96829300  0.92144920     0.79800
H2037       H  0.56758984  0.53541252  0.50559944     0.82000
H2038       H  0.49772632  0.96921409  0.58126490     0.79600
H2039       H  0.94869574  0.99859288  0.85980671     0.42600
H2040       H  0.57273611  0.50599693  0.87081174     0.41600
H2041       H  0.61420367  0.00286655  0.97673425     0.41300
H2042       H  0.61003600  0.51512340  0.55241029     0.39200
H2043       H  0.52534607  0.51776631  0.63529655     0.42400
H2044       H  0.96631036  0.99345433  0.63220496     0.37100
H2045       H  0.89140723  0.00197078  0.52134446     0.43300
H2046       H  0.89437558  0.51573792  0.94630816     0.39700
H2047       H  0.60554224  0.50900057  0.59580548     0.44600
H2048       H  0.93017898  0.99857326  0.63025481     0.43300
H2049       H  0.89927198  0.00787452  0.90369859     0.43500
H2050       H  0.54745194  0.48560991  0.87075754     0.43800
O2051       O  0.82007163  0.79274789  0.81584024    -0.75100
O2052       O  0.78762625  0.82066023  0.78938167    -0.54000
C2053       C  0.81154414  0.81443627  0.80956114     0.78700
O2054       O  0.81147086  0.71272202  0.66883315    -0.59700
O2055       O  0.78636204  0.68458599  0.70484975    -0.52700
C2056       C  0.80544750  0.69091789  0.67817112     0.70700
O2057       O  0.81443710  0.79342316  0.67528046    -0.74200
O2058       O  0.78595074  0.82108668  0.70813231    -0.54800
C2059       C  0.80749681  0.81509125  0.68428074     0.76700
O2060       O  0.81798217  0.71256795  0.82045073    -0.59400
O2061       O  0.78931988  0.68450270  0.78866656    -0.52500
C2062       C  0.81097541  0.69075486  0.81229047     0.73300
Zr2063     Zr  0.80039338  0.75259186  0.80336350     2.54700
O2064       O  0.85754558  0.75166622  0.80637162    -0.79900
O2065       O  0.79610884  0.75404731  0.87263557    -0.93300
Zr2066     Zr  0.79689150  0.75290229  0.68972667     2.64700
O2067       O  0.85402340  0.75273720  0.68545501    -0.98300
O2068       O  0.79104722  0.75576615  0.62070303    -0.80400
O2069       O  0.79871062  0.77571075  0.74671971    -0.83700
O2070       O  0.79997872  0.72973552  0.74630989    -2.18400
O2071       O  0.69118704  0.71123547  0.82388552    -0.67100
O2072       O  0.71889228  0.68354710  0.79039152    -0.51700
C2073       C  0.69765256  0.68952029  0.81467586     0.71700
O2074       O  0.68658542  0.79195085  0.67691716    -0.60000
O2075       O  0.71503044  0.82014029  0.70895063    -0.52000
C2076       C  0.69347957  0.81374978  0.68518104     0.73500
O2077       O  0.68556112  0.71162228  0.67999087    -0.71400
O2078       O  0.71710769  0.68392619  0.70870011    -0.50100
C2079       C  0.69370811  0.69001894  0.68767516     0.74800
O2080       O  0.68799765  0.79165662  0.82286252    -0.66700
O2081       O  0.71560714  0.81998530  0.79065671    -0.53900
C2082       C  0.69398302  0.81359373  0.81420909     0.73200
Zr2083     Zr  0.70770860  0.75181385  0.80781821     2.77500
O2084       O  0.65076624  0.75106563  0.81504159    -0.97500
O2085       O  0.71584470  0.75200520  0.87668330    -0.78300
Zr2086     Zr  0.70427982  0.75194521  0.69396321     2.70100
O2087       O  0.64711090  0.75212656  0.69306526    -0.79600
O2088       O  0.70753564  0.75065869  0.62458282    -0.98600
Zr2089     Zr  0.75140030  0.79827811  0.74931266     2.21500
Zr2090     Zr  0.75300492  0.70647179  0.74852030     2.11100
O2091       O  0.70568140  0.72909301  0.75085903    -2.47300
O2092       O  0.70477377  0.77481079  0.75103038    -0.79300
O2093       O  0.75438266  0.72870417  0.80649366    -0.71500
O2094       O  0.75023391  0.77589644  0.69126341    -2.32500
O2095       O  0.75378984  0.77571031  0.80705009    -2.28700
O2096       O  0.75086610  0.72892471  0.69072301    -0.73300
H2097       H  0.81836541  0.71966680  0.74531269     0.78700
H2098       H  0.74953382  0.78632489  0.66927841     0.79800
H2099       H  0.68745165  0.71885944  0.75171188     0.82000
H2100       H  0.75435414  0.78604633  0.82913307     0.79600
H2101       H  0.77672899  0.74245222  0.61392380     0.42600
H2102       H  0.71690330  0.73490506  0.61881967     0.41600
H2103       H  0.64101313  0.74943429  0.72002147     0.41300
H2104       H  0.64328846  0.73954114  0.79556504     0.39200
H2105       H  0.72143220  0.73531678  0.88307696     0.42400
H2106       H  0.81812636  0.75336098  0.88178098     0.37100
H2107       H  0.86427689  0.75019733  0.77939849     0.43300
H2108       H  0.86071793  0.73886193  0.70096286     0.39700
H2109       H  0.64691990  0.74303405  0.83981905     0.44600
H2110       H  0.78702888  0.73838231  0.87980491     0.43300
H2111       H  0.85853651  0.74805087  0.65873704     0.43500
H2112       H  0.68541743  0.74916898  0.61607895     0.43800
C2113       C  0.57494983  0.58385592  0.58658905    -0.11700
C2114       C  0.58476277  0.60475407  0.56715038     0.03700
C2115       C  0.60435857  0.62116952  0.58553075    -0.12300
C2116       C  0.61485511  0.61711763  0.62286749     0.20200
C2117       C  0.60496466  0.59650882  0.64247894    -0.09300
C2118       C  0.58518166  0.58012353  0.62433013    -0.02300
H2119       H  0.61197299  0.63704389  0.57035681     0.05100
C2120       C  0.63598966  0.63477886  0.64067205     0.20600
H2121       H  0.57806415  0.56420573  0.63972039     0.10300
C2122       C  0.62422951  0.64963713  0.66948153    -0.15700
C2123       C  0.64292682  0.66767685  0.68514682     0.03300
C2124       C  0.67396906  0.67085291  0.67215677    -0.11000
C2125       C  0.68602930  0.65566248  0.64395803    -0.01000
C2126       C  0.66712325  0.63783320  0.62783006    -0.06200
H2127       H  0.60027615  0.64740077  0.67937316     0.06300
H2128       H  0.70993959  0.65799495  0.63396686     0.09700
Br2129     Br  0.61892138  0.58938045  0.69332705    -0.05900
Br2130     Br  0.57469904  0.61139685  0.51478105    -0.02800
Br2131     Br  0.62534513  0.68716633  0.72484040     0.00000
Br2132     Br  0.68458898  0.61810984  0.58834164    -0.04300
C2133       C  0.58241558  0.58277274  0.92294366    -0.11700
C2134       C  0.61474482  0.58463858  0.93140329     0.03700
C2135       C  0.63280406  0.60261363  0.91437878    -0.12300
C2136       C  0.61920967  0.61871120  0.88864541     0.18600
C2137       C  0.58695331  0.61690433  0.88017800    -0.09300
C2138       C  0.56869342  0.59921104  0.89775863    -0.02300
H2139       H  0.65760550  0.60398572  0.92106613     0.05100
C2140       C  0.63937542  0.63676552  0.87009589     0.20600
H2141       H  0.54389544  0.59789064  0.89101702     0.10300
C2142       C  0.65349407  0.63132439  0.83506177    -0.15700
C2143       C  0.67290129  0.64789996  0.81651215     0.03300
C2144       C  0.67875745  0.67047482  0.83350105    -0.11000
C2145       C  0.66458951  0.67562331  0.86892254    -0.01000
C2146       C  0.64506576  0.65907067  0.88712634    -0.06200
H2147       H  0.64901117  0.61414856  0.82182789     0.06300
H2148       H  0.66855204  0.69272203  0.88261649     0.09700
Br2149     Br  0.56718948  0.63777058  0.84404613    -0.05900
Br2150     Br  0.63508890  0.56391083  0.96735891    -0.02800
Br2151     Br  0.68849578  0.63873059  0.76718078     0.00000
Br2152     Br  0.62630634  0.66791104  0.93488527    -0.04300
C2153       C  0.67452004  0.83280070  0.66701078    -0.11700
C2154       C  0.66273166  0.83074264  0.62932616     0.03700
C2155       C  0.64322528  0.84856709  0.61448278    -0.12300
C2156       C  0.63555084  0.86873065  0.63620662     0.18600
C2157       C  0.64772480  0.87110925  0.67339443    -0.09300
C2158       C  0.66699821  0.85323543  0.68847798    -0.02300
H2159       H  0.63434500  0.84688290  0.58558468     0.05100
C2160       C  0.61527063  0.88728346  0.61922349     0.20600
H2161       H  0.67563811  0.85512191  0.71743755     0.10300
C2162       C  0.58278896  0.88327625  0.61639980    -0.15700
C2163       C  0.56299600  0.90051773  0.60023856     0.03300
C2164       C  0.57584779  0.92214356  0.58644185    -0.11000
C2165       C  0.60838480  0.92602368  0.58940883    -0.01000
C2166       C  0.62806558  0.90878381  0.60536972    -0.06200
H2167       H  0.57279392  0.86677383  0.62716942     0.06300
H2168       H  0.61867651  0.94241239  0.57858817     0.09700
Br2169     Br  0.63824061  0.89828455  0.70475268    -0.05900
Br2170     Br  0.67381583  0.80497836  0.59568546    -0.02800
Br2171     Br  0.51861902  0.89420571  0.60001118     0.00000
Br2172     Br  0.67238219  0.91509516  0.60663982    -0.04300
C2173       C  0.82285916  0.67175629  0.65812945    -0.11700
C2174       C  0.83166606  0.67355661  0.61924259     0.03700
C2175       C  0.85090757  0.65604930  0.60292918    -0.12300
C2176       C  0.86100332  0.63641684  0.62445463     0.18600
C2177       C  0.85101122  0.63392539  0.66248450    -0.09300
C2178       C  0.83222776  0.65153511  0.67908600    -0.02300
H2179       H  0.85787410  0.65765281  0.57326099     0.05100
C2180       C  0.88192717  0.61855480  0.60695353     0.20600
H2181       H  0.82557062  0.64966100  0.70881822     0.10300
C2182       C  0.91456598  0.62220208  0.60788920    -0.15700
C2183       C  0.93513237  0.60503113  0.59307833     0.03300
C2184       C  0.92288561  0.58387102  0.57694641    -0.11000
C2185       C  0.89018457  0.58033051  0.57623666    -0.01000
C2186       C  0.86975176  0.59743322  0.59104008    -0.06200
H2187       H  0.92404854  0.63826258  0.62081786     0.06300
H2188       H  0.88042592  0.56417713  0.56390138     0.09700
Br2189     Br  0.86285542  0.60676742  0.69266267    -0.05900
Br2190     Br  0.81673778  0.69851419  0.58626817    -0.02800
Br2191     Br  0.97951242  0.61058858  0.59807413     0.00000
Br2192     Br  0.82544273  0.59102229  0.58950525    -0.04300
C2193       C  0.92835657  0.92119065  0.91491835    -0.11700
C2194       C  0.92707503  0.89720484  0.92817682     0.03700
C2195       C  0.90846742  0.88041537  0.90898649    -0.12300
C2196       C  0.89097466  0.88676620  0.87670799     0.18600
C2197       C  0.89230451  0.91035151  0.86315685    -0.09300
C2198       C  0.91087058  0.92723344  0.88207136    -0.02300
H2199       H  0.90728862  0.86224590  0.91961055     0.05100
C2200       C  0.87080291  0.86860622  0.85833314     0.20600
H2201       H  0.91149307  0.94525741  0.87083438     0.10300
C2202       C  0.83812769  0.86994581  0.86293454    -0.15700
C2203       C  0.81837595  0.85249630  0.84726406     0.03300
C2204       C  0.83132230  0.83340080  0.82634878    -0.11000
C2205       C  0.86409547  0.83197763  0.82213702    -0.01000
C2206       C  0.88382225  0.84940632  0.83788019    -0.06200
H2207       H  0.82803441  0.88437771  0.87945930     0.06300
H2208       H  0.87437767  0.81733550  0.80626733     0.09700
Br2209     Br  0.86948028  0.92027381  0.81862282    -0.05900
Br2210     Br  0.94869250  0.88560192  0.97267968    -0.02800
Br2211     Br  0.77435583  0.85442333  0.85827627     0.00000
Br2212     Br  0.92831457  0.84660549  0.83016682    -0.04300
C2213       C  0.92942197  0.58346873  0.91344130    -0.11700
C2214       C  0.92462109  0.58463562  0.87359140     0.03700
C2215       C  0.90476151  0.60209022  0.85823830    -0.12300
C2216       C  0.88973815  0.61867171  0.88198366     0.18600
C2217       C  0.89496560  0.61783311  0.92167696    -0.09300
C2218       C  0.91471500  0.60036299  0.93706209    -0.02300
H2219       H  0.90133759  0.60295318  0.82759042     0.05100
C2220       C  0.86941502  0.63710251  0.86466418     0.20600
H2221       H  0.91805623  0.59965021  0.96774342     0.10300
C2222       C  0.83845472  0.63133896  0.85441060    -0.15700
C2223       C  0.81875276  0.64839581  0.83753086     0.03300
C2224       C  0.83015866  0.67181533  0.83067690    -0.11000
C2225       C  0.86126573  0.67736922  0.84119952    -0.01000
C2226       C  0.88083756  0.66025824  0.85771881    -0.06200
H2227       H  0.82955417  0.61349185  0.85973005     0.06300
H2228       H  0.87075948  0.69503321  0.83584418     0.09700
Br2229     Br  0.87526918  0.63990960  0.95600161    -0.05900
Br2230     Br  0.94624722  0.56400870  0.83870365    -0.02800
Br2231     Br  0.77639122  0.63863896  0.82622308     0.00000
Br2232     Br  0.92338107  0.66909525  0.86921123    -0.04300
C2233       C  0.57875016  0.92028434  0.92370452    -0.11700
C2234       C  0.56507579  0.90470879  0.89676097     0.03700
C2235       C  0.58352363  0.88712781  0.87927333    -0.12300
C2236       C  0.61520580  0.88417242  0.88951886     0.18600
C2237       C  0.62822992  0.89889449  0.91810193    -0.09300
C2238       C  0.61022086  0.91712577  0.93431450    -0.02300
H2239       H  0.57316203  0.87573392  0.85762786     0.05100
C2240       C  0.63466716  0.86609774  0.86968300     0.20600
H2241       H  0.62060928  0.92856864  0.95588780     0.10300
C2242       C  0.65931218  0.87372544  0.84605532    -0.15700
C2243       C  0.67889322  0.85733895  0.82746400     0.03300
C2244       C  0.67410463  0.83239267  0.83269110    -0.11000
C2245       C  0.64893188  0.82501414  0.85627345    -0.01000
C2246       C  0.62931795  0.84151518  0.87438241    -0.06200
H2247       H  0.66334024  0.89268947  0.84207123     0.06300
H2248       H  0.64422045  0.80620873  0.86081714     0.09700
Br2249     Br  0.66988542  0.89381511  0.93741768    -0.05900
Br2250     Br  0.52158923  0.90715993  0.88251326    -0.02800
Br2251     Br  0.71111854  0.87106787  0.79570896     0.00000
Br2252     Br  0.59598100  0.82959006  0.90608587    -0.04300
C2253       C  0.92414646  0.92244030  0.58171368    -0.11700
C2254       C  0.92444363  0.91924351  0.62158587     0.03700
C2255       C  0.90511818  0.90188168  0.63816699    -0.12300
C2256       C  0.88550506  0.88763037  0.61537496     0.18600
C2257       C  0.88556974  0.89058233  0.57546249    -0.09300
C2258       C  0.90486699  0.90795296  0.55889630    -0.02300
H2259       H  0.90546053  0.89938956  0.66886364     0.05100
C2260       C  0.86567521  0.86933018  0.63360053     0.20600
H2261       H  0.90437344  0.91049319  0.52822334     0.10300
C2262       C  0.83383244  0.87407433  0.64024019    -0.15700
C2263       C  0.81424805  0.85675120  0.65664611     0.03300
C2264       C  0.82671773  0.83421474  0.66669917    -0.11000
C2265       C  0.85874184  0.82968326  0.65993511    -0.01000
C2266       C  0.87817872  0.84703611  0.64366291    -0.06200
H2267       H  0.82413251  0.89122545  0.63216138     0.06300
H2268       H  0.86883201  0.81259769  0.66763772     0.09700
Br2269     Br  0.85982961  0.87117532  0.54273003    -0.05900
Br2270     Br  0.95175009  0.93749405  0.65413806    -0.02800
Br2271     Br  0.77051970  0.86449916  0.66205928     0.00000
Br2272     Br  0.92158708  0.83952140  0.63504954    -0.04300
loop_ 
_geom_bond_atom_site_label_1 
_geom_bond_atom_site_label_2 
_geom_bond_distance 
_geom_bond_site_symmetry_2 
_ccdc_geom_bond_type 
O1          Zr13   2.436       .  S
O1            C3   1.286       .  A
O2        Zr1459   2.416       .  S
O2            C3   1.284       .  A
C3          C265   1.464       .  S
O4         Zr584   2.449       .  S
O4            C6   1.289       .  A
O5         Zr324   2.425       .  S
O5            C6   1.287       .  A
C6          C225   1.478       .  S
O7          Zr16   2.442       .  S
O7            C9   1.289       .  A
O8        Zr1175   2.420       .  S
O8            C9   1.284       .  A
C9          C205   1.492       .  S
O10        Zr581   2.433       .  S
O10          C12   1.287       .  A
O11         Zr40   2.427   1_554  S
O11          C12   1.287       .  A
C12         C196   1.475       .  S
Zr13        O578   2.433       .  S
Zr13         O14   2.434       .  S
Zr13        O583   2.435       .  S
Zr13         O19   2.371   1_554  S
Zr13        O588   2.369   1_554  S
Zr13        O611   2.371       .  S
Zr13       O1181   2.371       .  S
O14          H57   0.990       .  S
O15        Zr581   2.435       .  S
O15         H624   0.989   1_545  S
O15         H628   0.990   1_545  S
Zr16        O572   2.449       .  S
Zr16         O17   2.436       .  S
Zr16        O586   2.434       .  S
Zr16        O872   2.370       .  S
Zr16        O303   2.374       .  S
Zr16       O1180   2.371       .  S
Zr16        O614   2.373       .  S
O17          H61   0.990       .  S
O17         H626   0.990       .  S
O18        Zr584   2.434       .  S
O18         H619   0.990   1_545  S
O19        Zr300   2.374       .  S
O19       Zr1459   2.377   1_556  S
O20         Zr40   2.382       .  S
O20        Zr581   2.369   1_556  S
O20        Zr868   2.370       .  S
O20         H331   0.967       .  S
O21         Zr33   2.439       .  S
O21          C23   1.288       .  A
O22       Zr1176   2.420   1_554  S
O22          C23   1.285       .  A
C23         C125   1.479       .  S
O24        Zr604   2.450       .  S
O24          C26   1.289       .  A
O25         Zr39   2.417       .  S
O25          C26   1.284       .  A
C26         C245   1.471       .  S
O27         Zr36   2.442       .  S
O27          C29   1.288       .  A
O28       Zr1460   2.427       .  S
O28          C29   1.287       .  A
C29         C145   1.472       .  S
O30        Zr601   2.438       .  S
O30          C32   1.288       .  A
O31        Zr323   2.425       .  S
O31          C32   1.286       .  A
C32         C176   1.477       .  S
Zr33        O598   2.438   1_545  S
Zr33         O34   2.436       .  S
Zr33         O35   2.435       .  S
Zr33        O325   2.367       .  S
Zr33        O894   2.370   1_545  S
Zr33        O613   2.368   1_445  S
Zr33       O1179   2.372   1_455  S
O34          H54   0.990       .  S
O34          H59   0.990       .  S
O35          H55   0.990       .  S
Zr36        O592   2.450   1_545  S
Zr36         O37   2.434       .  S
Zr36         O38   2.435       .  S
Zr36         O41   2.370       .  S
Zr36        O610   2.369   1_545  S
Zr36       O1182   2.379       .  S
Zr36        O612   2.372   1_545  S
O37         H621   0.990       .  S
O38          H52   0.990       .  S
O38          H62   0.990   1_545  S
Zr39       O1422   2.416   1_455  S
Zr39       O1144   2.420   1_455  S
Zr39        O315   2.425       .  S
Zr39         O42   2.378       .  S
Zr39         O44   2.384       .  S
Zr39       O1439   2.377   1_455  S
Zr39        O329   2.386   1_455  S
Zr40        O289   2.425       .  S
Zr40       O1158   2.420   1_556  S
Zr40       O1448   2.427       .  S
Zr40         O43   2.385   1_556  S
Zr40       O1461   2.387   1_556  S
Zr40        O330   2.384       .  S
O41        Zr317   2.367       .  S
O41       Zr1460   2.387       .  S
O41         H333   0.965       .  S
O42        Zr885   2.370       .  S
O42        Zr604   2.369       .  S
O43        Zr581   2.371       .  S
O43       Zr1169   2.372       .  S
O44       Zr1152   2.371   1_455  S
O44        Zr604   2.372       .  S
O44          H48   0.967       .  S
O45       Zr1149   2.371       .  S
O45        Zr601   2.368   1_655  S
O45        Zr323   2.386   1_655  S
O45          H50   0.966       .  S
O46        Zr584   2.373       .  S
O46       Zr1172   2.379       .  S
O46        Zr324   2.384       .  S
H47         O304   0.967       .  S
H49         O325   0.965       .  S
H51         O586   0.990       .  S
H53         O605   0.990       .  S
H56         O583   0.989       .  S
H58         O585   0.990       .  S
H60         O583   0.990       .  S
O63         Zr75   2.436       .  S
O63          C65   1.287       .  A
O64        Zr101   2.429       .  S
O64          C65   1.288       .  A
C65         C216   1.475       .  S
O66         Zr78   2.447       .  S
O66          C68   1.288       .  A
O67        Zr102   2.422       .  S
O67          C68   1.287       .  A
C68         C185   1.482       .  S
O69         Zr78   2.439       .  S
O69          C71   1.288       .  A
O70        Zr101   2.420       .  S
O70          C71   1.286       .  A
C71         C276   1.479       .  S
O72         Zr75   2.438       .  S
O72          C74   1.288       .  A
O73        Zr102   2.426       .  S
O73          C74   1.286       .  A
C74         C236   1.486       .  S
Zr75         O76   2.435       .  S
Zr75         O77   2.433       .  S
Zr75         O81   2.368       .  S
Zr75         O82   2.372       .  S
Zr75        O105   2.370       .  S
Zr75        O107   2.375       .  S
O76         H119   0.990       .  S
O77         H118   0.991       .  S
O77         H122   0.989       .  S
Zr78         O79   2.436       .  S
Zr78         O80   2.434       .  S
Zr78         O82   2.371       .  S
Zr78         O81   2.370       .  S
Zr78        O106   2.370       .  S
Zr78        O108   2.371       .  S
O79         H120   0.990       .  S
O79         H123   0.990       .  S
O80         H113   0.990       .  S
O81        Zr101   2.382       .  S
O82        Zr102   2.384       .  S
O82         H109   0.966       .  S
O83         Zr95   2.441       .  S
O83          C85   1.288       .  A
O84        Zr102   2.427       .  S
O84          C85   1.286       .  A
C85         C156   1.487       .  S
O86         Zr98   2.439       .  S
O86          C88   1.287       .  A
O87        Zr101   2.429       .  S
O87          C88   1.288       .  A
C88         C165   1.482       .  S
O89         Zr98   2.441       .  S
O89          C91   1.287       .  A
O90        Zr102   2.420       .  S
O90          C91   1.285       .  A
C91         C136   1.465       .  S
O92         Zr95   2.443       .  S
O92          C94   1.289       .  A
O93        Zr101   2.430       .  S
O93          C94   1.286       .  A
C94         C256   1.499       .  S
Zr95         O96   2.437       .  S
Zr95         O97   2.435       .  S
Zr95        O103   2.367       .  S
Zr95        O104   2.371       .  S
Zr95        O107   2.371       .  S
Zr95        O105   2.374       .  S
O96         H116   0.991       .  S
O96         H121   0.990       .  S
O97         H117   0.990       .  S
Zr98         O99   2.433       .  S
Zr98        O100   2.433       .  S
Zr98        O104   2.373       .  S
Zr98        O103   2.367       .  S
Zr98        O108   2.370       .  S
Zr98        O106   2.370       .  S
O99         H115   0.990       .  S
O100        H114   0.990       .  S
O100        H124   0.990       .  S
Zr101       O104   2.377       .  S
Zr101       O106   2.388       .  S
Zr101       O107   2.385       .  S
Zr102       O103   2.384       .  S
Zr102       O105   2.381       .  S
Zr102       O108   2.383       .  S
O103        H111   0.963       .  S
O106        H110   0.966       .  S
O107        H112   0.966       .  S
C125        C126   1.415       .  A
C125        C130   1.406       .  A
C126        C127   1.396       .  A
C126       Br142   1.919       .  S
C127        C128   1.400       .  A
C127        H131   1.084       .  S
C128        C132   1.473       .  S
C128        C129   1.406       .  A
C129        C130   1.396       .  A
C129       Br141   1.918       .  S
C130        H133   1.084       .  S
C132        C134   1.401       .  A
C132        C138   1.409       .  A
C134        C135   1.396       .  A
C134        H139   1.084       .  S
C135        C136   1.408       .  A
C135       Br143   1.920       .  S
C136        C137   1.401       .  A
C137        C138   1.399       .  A
C137        H140   1.084       .  S
C138       Br144   1.920       .  S
C145        C146   1.411       .  A
C145        C150   1.403       .  A
C146        C147   1.398       .  A
C146       Br162   1.919       .  S
C147        C148   1.400       .  A
C147        H151   1.084       .  S
C148        C152   1.475       .  S
C148        C149   1.408       .  A
C149        C150   1.400       .  A
C149       Br161   1.917       .  S
C150        H153   1.084       .  S
C152        C154   1.400       .  A
C152        C158   1.404       .  A
C154        C155   1.400       .  A
C154        H159   1.084       .  S
C155        C156   1.418       .  A
C155       Br163   1.920       .  S
C156        C157   1.409       .  A
C157        C158   1.397       .  A
C157        H160   1.083       .  S
C158       Br164   1.918       .  S
C165        C166   1.416       .  A
C165        C170   1.407       .  A
C166        C167   1.400       .  A
C166       Br182   1.922       .  S
C167        C168   1.401       .  A
C167        H171   1.084       .  S
C168        C172   1.477       .  S
C168        C169   1.407       .  A
C169        C170   1.399       .  A
C169       Br181   1.920       .  S
C170        H173   1.083       .  S
C172        C174   1.403       .  A
C172        C178   1.406       .  A
C174        C175   1.402       .  A
C174        H179   1.083       .  S
C175        C176   1.412       .  A
C175       Br183   1.920       .  S
C176        C177   1.405       .  A
C177        C178   1.396       .  A
C177        H180   1.084       .  S
C178       Br184   1.918       .  S
C185        C186   1.415       .  A
C185        C190   1.407       .  A
C186        C187   1.401       .  A
C186       Br202   1.921       .  S
C187        C188   1.401       .  A
C187        H191   1.084       .  S
C188        C192   1.474       .  S
C188        C189   1.404       .  A
C189        C190   1.398       .  A
C189       Br201   1.919       .  S
C190        H193   1.084       .  S
C192        C194   1.404       .  A
C192        C198   1.405       .  A
C194        C195   1.401       .  A
C194        H199   1.083       .  S
C195        C196   1.411       .  A
C195       Br203   1.921       .  S
C196        C197   1.405       .  A
C197        C198   1.395       .  A
C197        H200   1.084       .  S
C198       Br204   1.919       .  S
C205        C206   1.421       .  A
C205        C210   1.411       .  A
C206        C207   1.399       .  A
C206       Br222   1.923       .  S
C207        C208   1.399       .  A
C207        H211   1.084       .  S
C208        C212   1.476       .  S
C208        C209   1.404       .  A
C209        C210   1.397       .  A
C209       Br221   1.919       .  S
C210        H213   1.083       .  S
C212        C214   1.402       .  A
C212        C218   1.407       .  A
C214        C215   1.399       .  A
C214        H219   1.084       .  S
C215        C216   1.409       .  A
C215       Br223   1.916       .  S
C216        C217   1.405       .  A
C217        C218   1.398       .  A
C217        H220   1.084       .  S
C218       Br224   1.920       .  S
C225        C226   1.411       .  A
C225        C230   1.405       .  A
C226        C227   1.401       .  A
C226       Br242   1.918       .  S
C227        C228   1.402       .  A
C227        H231   1.084       .  S
C228        C232   1.478       .  S
C228        C229   1.408       .  A
C229        C230   1.399       .  A
C229       Br241   1.919       .  S
C230        H233   1.084       .  S
C232        C234   1.402       .  A
C232        C238   1.404       .  A
C234        C235   1.403       .  A
C234        H239   1.083       .  S
C235        C236   1.417       .  A
C235       Br243   1.923       .  S
C236        C237   1.408       .  A
C237        C238   1.396       .  A
C237        H240   1.083       .  S
C238       Br244   1.918       .  S
C245        C246   1.409       .  A
C245        C250   1.401       .  A
C246        C247   1.402       .  A
C246       Br262   1.922       .  S
C247        C248   1.405       .  A
C247        H251   1.083       .  S
C248        C252   1.482       .  S
C248        C249   1.409       .  A
C249        C250   1.399       .  A
C249       Br261   1.919       .  S
C250        H253   1.084       .  S
C252        C254   1.401       .  A
C252        C258   1.404       .  A
C254        C255   1.402       .  A
C254        H259   1.084       .  S
C255        C256   1.422       .  A
C255       Br263   1.924       .  S
C256        C257   1.413       .  A
C257        C258   1.399       .  A
C257        H260   1.083       .  S
C258       Br264   1.920       .  S
C265        C266   1.407       .  A
C265        C270   1.402       .  A
C266        C267   1.397       .  A
C266       Br282   1.920       .  S
C267        C268   1.402       .  A
C267        H271   1.083       .  S
C268        C272   1.471       .  S
C268        C269   1.407       .  A
C269        C270   1.397       .  A
C269       Br281   1.920       .  S
C270        H273   1.083       .  S
C272        C274   1.401       .  A
C272        C278   1.403       .  A
C274        C275   1.400       .  A
C274        H279   1.084       .  S
C275        C276   1.414       .  A
C275       Br283   1.921       .  S
C276        C277   1.407       .  A
C277        C278   1.395       .  A
C277        H280   1.083       .  S
C278       Br284   1.920       .  S
O285       Zr297   2.436       .  S
O285        C287   1.286       .  A
O286      Zr1175   2.416       .  S
O286        C287   1.284       .  A
C287        C549   1.464       .  S
O288       Zr868   2.449       .  S
O288        C290   1.289       .  A
O289        C290   1.287       .  A
C290        C509   1.478       .  S
O291       Zr300   2.442       .  S
O291        C293   1.289       .  A
O292      Zr1459   2.420   1_556  S
O292        C293   1.284       .  A
C293        C489   1.492       .  S
O294       Zr865   2.433       .  S
O294        C296   1.287       .  A
O295       Zr324   2.427       .  S
O295        C296   1.287       .  A
C296        C480   1.475       .  S
Zr297       O862   2.433       .  S
Zr297       O298   2.434       .  S
Zr297       O867   2.435       .  S
Zr297       O303   2.371       .  S
Zr297       O872   2.369       .  S
Zr297       O895   2.371       .  S
Zr297      O1465   2.371       .  S
O298        H341   0.990       .  S
O299       Zr865   2.435       .  S
O299        H908   0.989   1_545  S
O299        H912   0.990   1_545  S
Zr300       O856   2.449       .  S
Zr300       O301   2.436       .  S
Zr300       O870   2.434       .  S
Zr300       O588   2.370       .  S
Zr300      O1464   2.371       .  S
Zr300       O898   2.373       .  S
O301        H910   0.990       .  S
O301        H345   0.990       .  S
O302       Zr868   2.434       .  S
O302        H903   0.990   1_545  S
O303      Zr1175   2.377       .  S
O304       Zr865   2.369       .  S
O304       Zr584   2.370       .  S
O304       Zr324   2.382       .  S
O305       Zr317   2.439       .  S
O305        C307   1.288       .  A
O306      Zr1460   2.420       .  S
O306        C307   1.285       .  A
C307        C409   1.479       .  S
O308       Zr888   2.450       .  S
O308        C310   1.289       .  A
O309       Zr323   2.417   1_556  S
O309        C310   1.284       .  A
C310        C529   1.471       .  S
O311       Zr320   2.442       .  S
O311        C313   1.288       .  A
O312      Zr1176   2.427       .  S
O312        C313   1.287       .  A
C313        C429   1.472       .  S
O314       Zr885   2.438       .  S
O314        C316   1.288       .  A
O315        C316   1.286       .  A
C316        C460   1.477       .  S
Zr317       O882   2.438   1_545  S
Zr317       O318   2.436       .  S
Zr317       O319   2.435       .  S
Zr317       O610   2.370   1_545  S
Zr317       O897   2.368   1_445  S
Zr317      O1463   2.372   1_455  S
O318        H338   0.990       .  S
O318        H343   0.990       .  S
O319        H339   0.990       .  S
Zr320       O876   2.450   1_545  S
Zr320       O321   2.434       .  S
Zr320       O322   2.435       .  S
Zr320       O894   2.369   1_546  S
Zr320       O325   2.370   1_556  S
Zr320      O1466   2.379       .  S
Zr320       O896   2.372   1_545  S
O321        H905   0.990       .  S
O322        H336   0.990       .  S
O322        H346   0.990   1_545  S
Zr323      O1138   2.416   1_455  S
Zr323      O1428   2.420   1_454  S
Zr323      O1155   2.377   1_454  S
Zr323       O326   2.378       .  S
Zr323       O328   2.384   1_554  S
Zr324      O1442   2.420       .  S
Zr324      O1164   2.427       .  S
Zr324      O1177   2.387       .  S
Zr324       O327   2.385       .  S
O325      Zr1176   2.387   1_554  S
O326       Zr601   2.370       .  S
O326       Zr888   2.369   1_554  S
O327       Zr865   2.371       .  S
O327      Zr1453   2.372       .  S
O328      Zr1436   2.371   1_455  S
O328       Zr888   2.372       .  S
O328        H332   0.967       .  S
O329      Zr1433   2.371       .  S
O329       Zr885   2.368   1_655  S
O329        H334   0.966       .  S
O330       Zr868   2.373       .  S
O330      Zr1456   2.379       .  S
H335        O870   0.990       .  S
H337        O889   0.990       .  S
H340        O867   0.989       .  S
H342        O869   0.990       .  S
H344        O867   0.990       .  S
O347       Zr359   2.436       .  S
O347        C349   1.287       .  A
O348       Zr385   2.429       .  S
O348        C349   1.288       .  A
C349        C500   1.475       .  S
O350       Zr362   2.447       .  S
O350        C352   1.288       .  A
O351       Zr386   2.422       .  S
O351        C352   1.287       .  A
C352        C469   1.482       .  S
O353       Zr362   2.439       .  S
O353        C355   1.288       .  A
O354       Zr385   2.420       .  S
O354        C355   1.286       .  A
C355        C560   1.479       .  S
O356       Zr359   2.438       .  S
O356        C358   1.288       .  A
O357       Zr386   2.426       .  S
O357        C358   1.286       .  A
C358        C520   1.486       .  S
Zr359       O360   2.435       .  S
Zr359       O361   2.433       .  S
Zr359       O365   2.368       .  S
Zr359       O366   2.372       .  S
Zr359       O389   2.370       .  S
Zr359       O391   2.375       .  S
O360        H403   0.990       .  S
O361        H402   0.991       .  S
O361        H406   0.990       .  S
Zr362       O363   2.436       .  S
Zr362       O364   2.434       .  S
Zr362       O366   2.371       .  S
Zr362       O365   2.370       .  S
Zr362       O390   2.370       .  S
Zr362       O392   2.371       .  S
O363        H404   0.990       .  S
O363        H407   0.990       .  S
O364        H397   0.990       .  S
O365       Zr385   2.382       .  S
O366       Zr386   2.384       .  S
O366        H393   0.966       .  S
O367       Zr379   2.441       .  S
O367        C369   1.288       .  A
O368       Zr386   2.427       .  S
O368        C369   1.286       .  A
C369        C440   1.487       .  S
O370       Zr382   2.439       .  S
O370        C372   1.287       .  A
O371       Zr385   2.429       .  S
O371        C372   1.288       .  A
C372        C449   1.482       .  S
O373       Zr382   2.441       .  S
O373        C375   1.287       .  A
O374       Zr386   2.420       .  S
O374        C375   1.285       .  A
C375        C420   1.465       .  S
O376       Zr379   2.443       .  S
O376        C378   1.289       .  A
O377       Zr385   2.430       .  S
O377        C378   1.286       .  A
C378        C540   1.499       .  S
Zr379       O380   2.437       .  S
Zr379       O381   2.435       .  S
Zr379       O387   2.366       .  S
Zr379       O388   2.371       .  S
Zr379       O391   2.371       .  S
Zr379       O389   2.374       .  S
O380        H400   0.991       .  S
O380        H405   0.990       .  S
O381        H401   0.990       .  S
Zr382       O383   2.433       .  S
Zr382       O384   2.433       .  S
Zr382       O388   2.373       .  S
Zr382       O387   2.367       .  S
Zr382       O392   2.370       .  S
Zr382       O390   2.370       .  S
O383        H399   0.990       .  S
O384        H398   0.990       .  S
O384        H408   0.990       .  S
Zr385       O388   2.377       .  S
Zr385       O390   2.388       .  S
Zr385       O391   2.385       .  S
Zr386       O387   2.384       .  S
Zr386       O389   2.381       .  S
Zr386       O392   2.383       .  S
O387        H395   0.963       .  S
O390        H394   0.966       .  S
O391        H396   0.966       .  S
C409        C410   1.415       .  A
C409        C414   1.406       .  A
C410        C411   1.396       .  A
C410       Br426   1.919       .  S
C411        C412   1.400       .  A
C411        H415   1.084       .  S
C412        C416   1.473       .  S
C412        C413   1.406       .  A
C413        C414   1.396       .  A
C413       Br425   1.918       .  S
C414        H417   1.084       .  S
C416        C418   1.401       .  A
C416        C422   1.409       .  A
C418        C419   1.396       .  A
C418        H423   1.084       .  S
C419        C420   1.408       .  A
C419       Br427   1.920       .  S
C420        C421   1.401       .  A
C421        C422   1.399       .  A
C421        H424   1.084       .  S
C422       Br428   1.920       .  S
C429        C430   1.411       .  A
C429        C434   1.403       .  A
C430        C431   1.398       .  A
C430       Br446   1.919       .  S
C431        C432   1.400       .  A
C431        H435   1.084       .  S
C432        C436   1.475       .  S
C432        C433   1.408       .  A
C433        C434   1.400       .  A
C433       Br445   1.917       .  S
C434        H437   1.084       .  S
C436        C438   1.400       .  A
C436        C442   1.404       .  A
C438        C439   1.400       .  A
C438        H443   1.084       .  S
C439        C440   1.418       .  A
C439       Br447   1.920       .  S
C440        C441   1.409       .  A
C441        C442   1.397       .  A
C441        H444   1.083       .  S
C442       Br448   1.918       .  S
C449        C450   1.416       .  A
C449        C454   1.407       .  A
C450        C451   1.400       .  A
C450       Br466   1.922       .  S
C451        C452   1.401       .  A
C451        H455   1.084       .  S
C452        C456   1.477       .  S
C452        C453   1.407       .  A
C453        C454   1.399       .  A
C453       Br465   1.920       .  S
C454        H457   1.083       .  S
C456        C458   1.403       .  A
C456        C462   1.406       .  A
C458        C459   1.402       .  A
C458        H463   1.083       .  S
C459        C460   1.412       .  A
C459       Br467   1.920       .  S
C460        C461   1.405       .  A
C461        C462   1.396       .  A
C461        H464   1.084       .  S
C462       Br468   1.918       .  S
C469        C470   1.415       .  A
C469        C474   1.407       .  A
C470        C471   1.401       .  A
C470       Br486   1.921       .  S
C471        C472   1.401       .  A
C471        H475   1.084       .  S
C472        C476   1.474       .  S
C472        C473   1.404       .  A
C473        C474   1.398       .  A
C473       Br485   1.919       .  S
C474        H477   1.084       .  S
C476        C478   1.404       .  A
C476        C482   1.405       .  A
C478        C479   1.401       .  A
C478        H483   1.083       .  S
C479        C480   1.411       .  A
C479       Br487   1.921       .  S
C480        C481   1.405       .  A
C481        C482   1.395       .  A
C481        H484   1.084       .  S
C482       Br488   1.919       .  S
C489        C490   1.421       .  A
C489        C494   1.411       .  A
C490        C491   1.399       .  A
C490       Br506   1.923       .  S
C491        C492   1.399       .  A
C491        H495   1.084       .  S
C492        C496   1.476       .  S
C492        C493   1.404       .  A
C493        C494   1.397       .  A
C493       Br505   1.919       .  S
C494        H497   1.083       .  S
C496        C498   1.402       .  A
C496        C502   1.407       .  A
C498        C499   1.399       .  A
C498        H503   1.084       .  S
C499        C500   1.409       .  A
C499       Br507   1.916       .  S
C500        C501   1.405       .  A
C501        C502   1.398       .  A
C501        H504   1.084       .  S
C502       Br508   1.920       .  S
C509        C510   1.411       .  A
C509        C514   1.405       .  A
C510        C511   1.401       .  A
C510       Br526   1.918       .  S
C511        C512   1.402       .  A
C511        H515   1.084       .  S
C512        C516   1.478       .  S
C512        C513   1.408       .  A
C513        C514   1.399       .  A
C513       Br525   1.919       .  S
C514        H517   1.084       .  S
C516        C518   1.402       .  A
C516        C522   1.404       .  A
C518        C519   1.403       .  A
C518        H523   1.083       .  S
C519        C520   1.417       .  A
C519       Br527   1.923       .  S
C520        C521   1.408       .  A
C521        C522   1.396       .  A
C521        H524   1.083       .  S
C522       Br528   1.918       .  S
C529        C530   1.409       .  A
C529        C534   1.401       .  A
C530        C531   1.402       .  A
C530       Br546   1.922       .  S
C531        C532   1.405       .  A
C531        H535   1.083       .  S
C532        C536   1.482       .  S
C532        C533   1.409       .  A
C533        C534   1.399       .  A
C533       Br545   1.919       .  S
C534        H537   1.084       .  S
C536        C538   1.401       .  A
C536        C542   1.404       .  A
C538        C539   1.402       .  A
C538        H543   1.084       .  S
C539        C540   1.422       .  A
C539       Br547   1.924       .  S
C540        C541   1.413       .  A
C541        C542   1.399       .  A
C541        H544   1.083       .  S
C542       Br548   1.920       .  S
C549        C550   1.407       .  A
C549        C554   1.402       .  A
C550        C551   1.397       .  A
C550       Br566   1.920       .  S
C551        C552   1.402       .  A
C551        H555   1.083       .  S
C552        C556   1.471       .  S
C552        C553   1.407       .  A
C553        C554   1.397       .  A
C553       Br565   1.920       .  S
C554        H557   1.083       .  S
C556        C558   1.401       .  A
C556        C562   1.403       .  A
C558        C559   1.400       .  A
C558        H563   1.084       .  S
C559        C560   1.414       .  A
C559       Br567   1.921       .  S
C560        C561   1.407       .  A
C561        C562   1.395       .  A
C561        H564   1.083       .  S
C562       Br568   1.920       .  S
O569       Zr581   2.436   1_565  S
O569        C571   1.286       .  A
O570      Zr2027   2.416       .  S
O570        C571   1.284       .  A
C571        C833   1.464       .  S
O572        C574   1.289       .  A
O573       Zr892   2.425       .  S
O573        C574   1.287       .  A
C574        C793   1.478       .  S
O575       Zr584   2.442   1_565  S
O575        C577   1.289       .  A
O576      Zr1743   2.420       .  S
O576        C577   1.284       .  A
C577        C773   1.492       .  S
O578        C580   1.287       .  A
O579       Zr608   2.427   1_554  S
O579        C580   1.287       .  A
C580        C764   1.475       .  S
Zr581       O582   2.434       .  S
Zr581       O587   2.371   1_544  S
Zr581      O1749   2.371   1_545  S
O582        H625   0.990       .  S
Zr584       O585   2.436       .  S
Zr584       O871   2.374   1_545  S
Zr584      O1748   2.371   1_545  S
O585        H629   0.990       .  S
O587       Zr868   2.374   1_565  S
O587      Zr2027   2.377   1_556  S
O588       Zr608   2.382       .  S
O588        H899   0.967       .  S
O589       Zr601   2.439       .  S
O589        C591   1.288       .  A
O590      Zr1744   2.420   1_554  S
O590        C591   1.285       .  A
C591        C693   1.479       .  S
O592        C594   1.289       .  A
O593       Zr607   2.417       .  S
O593        C594   1.284       .  A
C594        C813   1.471       .  S
O595       Zr604   2.442       .  S
O595        C597   1.288       .  A
O596      Zr2028   2.427       .  S
O596        C597   1.287       .  A
C597        C713   1.472       .  S
O598        C600   1.288       .  A
O599       Zr891   2.425       .  S
O599        C600   1.286       .  A
C600        C744   1.477       .  S
Zr601       O602   2.436       .  S
Zr601       O603   2.435       .  S
Zr601       O893   2.367       .  S
Zr601      O1747   2.372   1_455  S
O602        H622   0.990       .  S
O602        H627   0.990       .  S
O603        H623   0.990       .  S
Zr604       O605   2.434       .  S
Zr604       O606   2.435       .  S
Zr604       O609   2.370       .  S
Zr604      O1750   2.379       .  S
O606        H620   0.991       .  S
O606        H630   0.990       .  S
Zr607      O1990   2.416   1_455  S
Zr607      O1712   2.420   1_455  S
Zr607       O883   2.425       .  S
Zr607      O2007   2.377   1_455  S
Zr607       O610   2.378       .  S
Zr607       O612   2.384       .  S
Zr607       O897   2.386   1_455  S
Zr608       O857   2.425       .  S
Zr608      O1726   2.420   1_556  S
Zr608      O2016   2.427       .  S
Zr608      O2029   2.387   1_556  S
Zr608       O611   2.385   1_556  S
Zr608       O898   2.384       .  S
O609       Zr885   2.367       .  S
O609      Zr2028   2.387       .  S
O609        H901   0.965       .  S
O611      Zr1737   2.372       .  S
O612      Zr1720   2.371   1_465  S
O612        H616   0.967       .  S
O613      Zr1717   2.371   1_565  S
O613       Zr891   2.386   1_655  S
O613        H618   0.966       .  S
O614      Zr1740   2.379       .  S
O614       Zr892   2.384       .  S
H615        O872   0.967       .  S
H617        O893   0.965       .  S
O631       Zr643   2.436       .  S
O631        C633   1.287       .  A
O632       Zr669   2.429       .  S
O632        C633   1.288       .  A
C633        C784   1.475       .  S
O634       Zr646   2.447       .  S
O634        C636   1.288       .  A
O635       Zr670   2.422       .  S
O635        C636   1.287       .  A
C636        C753   1.482       .  S
O637       Zr646   2.439       .  S
O637        C639   1.288       .  A
O638       Zr669   2.420       .  S
O638        C639   1.286       .  A
C639        C844   1.479       .  S
O640       Zr643   2.438       .  S
O640        C642   1.288       .  A
O641       Zr670   2.426       .  S
O641        C642   1.286       .  A
C642        C804   1.486       .  S
Zr643       O644   2.435       .  S
Zr643       O645   2.433       .  S
Zr643       O649   2.368       .  S
Zr643       O650   2.372       .  S
Zr643       O673   2.370       .  S
Zr643       O675   2.375       .  S
O644        H687   0.990       .  S
O645        H686   0.991       .  S
O645        H690   0.990       .  S
Zr646       O647   2.436       .  S
Zr646       O648   2.434       .  S
Zr646       O650   2.371       .  S
Zr646       O649   2.370       .  S
Zr646       O674   2.370       .  S
Zr646       O676   2.371       .  S
O647        H688   0.990       .  S
O647        H691   0.990       .  S
O648        H681   0.990       .  S
O649       Zr669   2.382       .  S
O650       Zr670   2.384       .  S
O650        H677   0.966       .  S
O651       Zr663   2.441       .  S
O651        C653   1.288       .  A
O652       Zr670   2.427       .  S
O652        C653   1.286       .  A
C653        C724   1.487       .  S
O654       Zr666   2.439       .  S
O654        C656   1.287       .  A
O655       Zr669   2.429       .  S
O655        C656   1.288       .  A
C656        C733   1.482       .  S
O657       Zr666   2.441       .  S
O657        C659   1.287       .  A
O658       Zr670   2.420       .  S
O658        C659   1.285       .  A
C659        C704   1.465       .  S
O660       Zr663   2.443       .  S
O660        C662   1.289       .  A
O661       Zr669   2.430       .  S
O661        C662   1.286       .  A
C662        C824   1.499       .  S
Zr663       O664   2.437       .  S
Zr663       O665   2.435       .  S
Zr663       O671   2.366       .  S
Zr663       O672   2.371       .  S
Zr663       O675   2.371       .  S
Zr663       O673   2.374       .  S
O664        H684   0.990       .  S
O664        H689   0.990       .  S
O665        H685   0.990       .  S
Zr666       O667   2.433       .  S
Zr666       O668   2.433       .  S
Zr666       O672   2.373       .  S
Zr666       O671   2.367       .  S
Zr666       O676   2.370       .  S
Zr666       O674   2.370       .  S
O667        H683   0.990       .  S
O668        H682   0.990       .  S
O668        H692   0.990       .  S
Zr669       O672   2.377       .  S
Zr669       O674   2.388       .  S
Zr669       O675   2.385       .  S
Zr670       O671   2.384       .  S
Zr670       O673   2.381       .  S
Zr670       O676   2.383       .  S
O671        H679   0.964       .  S
O674        H678   0.966       .  S
O675        H680   0.966       .  S
C693        C694   1.415       .  A
C693        C698   1.406       .  A
C694        C695   1.396       .  A
C694       Br710   1.919       .  S
C695        C696   1.400       .  A
C695        H699   1.084       .  S
C696        C700   1.473       .  S
C696        C697   1.406       .  A
C697        C698   1.396       .  A
C697       Br709   1.918       .  S
C698        H701   1.084       .  S
C700        C702   1.401       .  A
C700        C706   1.409       .  A
C702        C703   1.396       .  A
C702        H707   1.084       .  S
C703        C704   1.408       .  A
C703       Br711   1.920       .  S
C704        C705   1.401       .  A
C705        C706   1.399       .  A
C705        H708   1.084       .  S
C706       Br712   1.920       .  S
C713        C714   1.411       .  A
C713        C718   1.403       .  A
C714        C715   1.398       .  A
C714       Br730   1.919       .  S
C715        C716   1.400       .  A
C715        H719   1.084       .  S
C716        C720   1.475       .  S
C716        C717   1.408       .  A
C717        C718   1.400       .  A
C717       Br729   1.917       .  S
C718        H721   1.084       .  S
C720        C722   1.400       .  A
C720        C726   1.404       .  A
C722        C723   1.400       .  A
C722        H727   1.084       .  S
C723        C724   1.418       .  A
C723       Br731   1.920       .  S
C724        C725   1.409       .  A
C725        C726   1.397       .  A
C725        H728   1.083       .  S
C726       Br732   1.918       .  S
C733        C734   1.416       .  A
C733        C738   1.407       .  A
C734        C735   1.400       .  A
C734       Br750   1.922       .  S
C735        C736   1.401       .  A
C735        H739   1.084       .  S
C736        C740   1.477       .  S
C736        C737   1.407       .  A
C737        C738   1.399       .  A
C737       Br749   1.920       .  S
C738        H741   1.083       .  S
C740        C742   1.403       .  A
C740        C746   1.406       .  A
C742        C743   1.402       .  A
C742        H747   1.083       .  S
C743        C744   1.412       .  A
C743       Br751   1.920       .  S
C744        C745   1.405       .  A
C745        C746   1.396       .  A
C745        H748   1.084       .  S
C746       Br752   1.918       .  S
C753        C754   1.415       .  A
C753        C758   1.407       .  A
C754        C755   1.401       .  A
C754       Br770   1.921       .  S
C755        C756   1.401       .  A
C755        H759   1.084       .  S
C756        C760   1.474       .  S
C756        C757   1.404       .  A
C757        C758   1.398       .  A
C757       Br769   1.919       .  S
C758        H761   1.084       .  S
C760        C762   1.404       .  A
C760        C766   1.405       .  A
C762        C763   1.401       .  A
C762        H767   1.083       .  S
C763        C764   1.411       .  A
C763       Br771   1.921       .  S
C764        C765   1.405       .  A
C765        C766   1.395       .  A
C765        H768   1.084       .  S
C766       Br772   1.919       .  S
C773        C774   1.421       .  A
C773        C778   1.411       .  A
C774        C775   1.399       .  A
C774       Br790   1.923       .  S
C775        C776   1.399       .  A
C775        H779   1.084       .  S
C776        C780   1.476       .  S
C776        C777   1.404       .  A
C777        C778   1.397       .  A
C777       Br789   1.919       .  S
C778        H781   1.083       .  S
C780        C782   1.402       .  A
C780        C786   1.407       .  A
C782        C783   1.399       .  A
C782        H787   1.084       .  S
C783        C784   1.409       .  A
C783       Br791   1.916       .  S
C784        C785   1.405       .  A
C785        C786   1.398       .  A
C785        H788   1.084       .  S
C786       Br792   1.920       .  S
C793        C794   1.411       .  A
C793        C798   1.405       .  A
C794        C795   1.401       .  A
C794       Br810   1.918       .  S
C795        C796   1.402       .  A
C795        H799   1.084       .  S
C796        C800   1.478       .  S
C796        C797   1.408       .  A
C797        C798   1.399       .  A
C797       Br809   1.919       .  S
C798        H801   1.084       .  S
C800        C802   1.402       .  A
C800        C806   1.404       .  A
C802        C803   1.403       .  A
C802        H807   1.083       .  S
C803        C804   1.417       .  A
C803       Br811   1.923       .  S
C804        C805   1.408       .  A
C805        C806   1.396       .  A
C805        H808   1.083       .  S
C806       Br812   1.918       .  S
C813        C814   1.409       .  A
C813        C818   1.401       .  A
C814        C815   1.402       .  A
C814       Br830   1.922       .  S
C815        C816   1.405       .  A
C815        H819   1.083       .  S
C816        C820   1.482       .  S
C816        C817   1.409       .  A
C817        C818   1.399       .  A
C817       Br829   1.919       .  S
C818        H821   1.084       .  S
C820        C822   1.401       .  A
C820        C826   1.404       .  A
C822        C823   1.402       .  A
C822        H827   1.084       .  S
C823        C824   1.422       .  A
C823       Br831   1.924       .  S
C824        C825   1.413       .  A
C825        C826   1.399       .  A
C825        H828   1.083       .  S
C826       Br832   1.920       .  S
C833        C834   1.407       .  A
C833        C838   1.402       .  A
C834        C835   1.397       .  A
C834       Br850   1.920       .  S
C835        C836   1.402       .  A
C835        H839   1.083       .  S
C836        C840   1.471       .  S
C836        C837   1.407       .  A
C837        C838   1.397       .  A
C837       Br849   1.920       .  S
C838        H841   1.083       .  S
C840        C842   1.401       .  A
C840        C846   1.403       .  A
C842        C843   1.400       .  A
C842        H847   1.084       .  S
C843        C844   1.414       .  A
C843       Br851   1.921       .  S
C844        C845   1.407       .  A
C845        C846   1.395       .  A
C845        H848   1.083       .  S
C846       Br852   1.920       .  S
O853       Zr865   2.436   1_565  S
O853        C855   1.286       .  A
O854      Zr1743   2.416       .  S
O854        C855   1.284       .  A
C855       C1117   1.464       .  S
O856        C858   1.289       .  A
O857        C858   1.287       .  A
C858       C1077   1.478       .  S
O859       Zr868   2.442   1_565  S
O859        C861   1.289       .  A
O860      Zr2027   2.420   1_556  S
O860        C861   1.284       .  A
C861       C1057   1.492       .  S
O862        C864   1.287       .  A
O863       Zr892   2.427       .  S
O863        C864   1.287       .  A
C864       C1048   1.475       .  S
Zr865       O866   2.434       .  S
Zr865       O871   2.371   1_545  S
Zr865      O2033   2.371   1_545  S
O866        H909   0.990       .  S
Zr868       O869   2.436       .  S
Zr868      O2032   2.371   1_545  S
O869        H913   0.990       .  S
O871      Zr1743   2.377       .  S
O872       Zr892   2.382       .  S
O873       Zr885   2.439       .  S
O873        C875   1.288       .  A
O874      Zr2028   2.420       .  S
O874        C875   1.285       .  A
C875        C977   1.479       .  S
O876        C878   1.289       .  A
O877       Zr891   2.417   1_556  S
O877        C878   1.284       .  A
C878       C1097   1.471       .  S
O879       Zr888   2.442       .  S
O879        C881   1.288       .  A
O880      Zr1744   2.427       .  S
O880        C881   1.287       .  A
C881        C997   1.472       .  S
O882        C884   1.288       .  A
O883        C884   1.286       .  A
C884       C1028   1.477       .  S
Zr885       O886   2.436       .  S
Zr885       O887   2.435       .  S
Zr885      O2031   2.372   1_455  S
O886        H906   0.990       .  S
O886        H911   0.990       .  S
O887        H907   0.990       .  S
Zr888       O889   2.434       .  S
Zr888       O890   2.435       .  S
Zr888       O893   2.370   1_556  S
Zr888      O2034   2.379       .  S
O890        H904   0.990       .  S
O890        H914   0.990       .  S
Zr891      O1706   2.416   1_455  S
Zr891      O1996   2.420   1_454  S
Zr891      O1723   2.377   1_454  S
Zr891       O894   2.378       .  S
Zr891       O896   2.384   1_554  S
Zr892      O2010   2.420       .  S
Zr892      O1732   2.427       .  S
Zr892      O1745   2.387       .  S
Zr892       O895   2.385       .  S
O893      Zr1744   2.387   1_554  S
O895      Zr2021   2.372       .  S
O896      Zr2004   2.371   1_465  S
O896        H900   0.967       .  S
O897      Zr2001   2.371   1_565  S
O897        H902   0.966       .  S
O898      Zr2024   2.379       .  S
O915       Zr927   2.436       .  S
O915        C917   1.287       .  A
O916       Zr953   2.429       .  S
O916        C917   1.288       .  A
C917       C1068   1.475       .  S
O918       Zr930   2.447       .  S
O918        C920   1.288       .  A
O919       Zr954   2.422       .  S
O919        C920   1.287       .  A
C920       C1037   1.482       .  S
O921       Zr930   2.439       .  S
O921        C923   1.288       .  A
O922       Zr953   2.420       .  S
O922        C923   1.286       .  A
C923       C1128   1.479       .  S
O924       Zr927   2.438       .  S
O924        C926   1.288       .  A
O925       Zr954   2.426       .  S
O925        C926   1.286       .  A
C926       C1088   1.486       .  S
Zr927       O928   2.435       .  S
Zr927       O929   2.433       .  S
Zr927       O933   2.368       .  S
Zr927       O934   2.372       .  S
Zr927       O957   2.370       .  S
Zr927       O959   2.375       .  S
O928        H971   0.990       .  S
O929        H970   0.991       .  S
O929        H974   0.989       .  S
Zr930       O931   2.436       .  S
Zr930       O932   2.434       .  S
Zr930       O934   2.371       .  S
Zr930       O933   2.370       .  S
Zr930       O958   2.370       .  S
Zr930       O960   2.371       .  S
O931        H972   0.990       .  S
O931        H975   0.990       .  S
O932        H965   0.990       .  S
O933       Zr953   2.382       .  S
O934       Zr954   2.384       .  S
O934        H961   0.966       .  S
O935       Zr947   2.441       .  S
O935        C937   1.288       .  A
O936       Zr954   2.427       .  S
O936        C937   1.286       .  A
C937       C1008   1.487       .  S
O938       Zr950   2.439       .  S
O938        C940   1.287       .  A
O939       Zr953   2.429       .  S
O939        C940   1.288       .  A
C940       C1017   1.482       .  S
O941       Zr950   2.441       .  S
O941        C943   1.287       .  A
O942       Zr954   2.420       .  S
O942        C943   1.285       .  A
C943        C988   1.465       .  S
O944       Zr947   2.443       .  S
O944        C946   1.289       .  A
O945       Zr953   2.430       .  S
O945        C946   1.286       .  A
C946       C1108   1.499       .  S
Zr947       O948   2.437       .  S
Zr947       O949   2.435       .  S
Zr947       O955   2.366       .  S
Zr947       O956   2.371       .  S
Zr947       O959   2.371       .  S
Zr947       O957   2.374       .  S
O948        H968   0.990       .  S
O948        H973   0.990       .  S
O949        H969   0.990       .  S
Zr950       O951   2.433       .  S
Zr950       O952   2.433       .  S
Zr950       O956   2.373       .  S
Zr950       O955   2.367       .  S
Zr950       O960   2.370       .  S
Zr950       O958   2.370       .  S
O951        H967   0.990       .  S
O952        H966   0.990       .  S
O952        H976   0.990       .  S
Zr953       O956   2.377       .  S
Zr953       O958   2.388       .  S
Zr953       O959   2.385       .  S
Zr954       O955   2.384       .  S
Zr954       O957   2.381       .  S
Zr954       O960   2.383       .  S
O955        H963   0.963       .  S
O958        H962   0.966       .  S
O959        H964   0.966       .  S
C977        C978   1.415       .  A
C977        C982   1.406       .  A
C978        C979   1.396       .  A
C978       Br994   1.919       .  S
C979        C980   1.400       .  A
C979        H983   1.084       .  S
C980        C984   1.473       .  S
C980        C981   1.406       .  A
C981        C982   1.396       .  A
C981       Br993   1.918       .  S
C982        H985   1.084       .  S
C984        C986   1.401       .  A
C984        C990   1.409       .  A
C986        C987   1.396       .  A
C986        H991   1.084       .  S
C987        C988   1.408       .  A
C987       Br995   1.920       .  S
C988        C989   1.401       .  A
C989        C990   1.399       .  A
C989        H992   1.084       .  S
C990       Br996   1.920       .  S
C997        C998   1.411       .  A
C997       C1002   1.403       .  A
C998        C999   1.398       .  A
C998      Br1014   1.919       .  S
C999       C1000   1.400       .  A
C999       H1003   1.084       .  S
C1000      C1004   1.475       .  S
C1000      C1001   1.408       .  A
C1001      C1002   1.400       .  A
C1001     Br1013   1.917       .  S
C1002      H1005   1.084       .  S
C1004      C1006   1.400       .  A
C1004      C1010   1.404       .  A
C1006      C1007   1.400       .  A
C1006      H1011   1.084       .  S
C1007      C1008   1.418       .  A
C1007     Br1015   1.920       .  S
C1008      C1009   1.409       .  A
C1009      C1010   1.397       .  A
C1009      H1012   1.083       .  S
C1010     Br1016   1.918       .  S
C1017      C1018   1.416       .  A
C1017      C1022   1.407       .  A
C1018      C1019   1.400       .  A
C1018     Br1034   1.922       .  S
C1019      C1020   1.401       .  A
C1019      H1023   1.084       .  S
C1020      C1024   1.477       .  S
C1020      C1021   1.407       .  A
C1021      C1022   1.399       .  A
C1021     Br1033   1.920       .  S
C1022      H1025   1.083       .  S
C1024      C1026   1.403       .  A
C1024      C1030   1.406       .  A
C1026      C1027   1.402       .  A
C1026      H1031   1.083       .  S
C1027      C1028   1.412       .  A
C1027     Br1035   1.920       .  S
C1028      C1029   1.405       .  A
C1029      C1030   1.396       .  A
C1029      H1032   1.084       .  S
C1030     Br1036   1.918       .  S
C1037      C1038   1.415       .  A
C1037      C1042   1.407       .  A
C1038      C1039   1.401       .  A
C1038     Br1054   1.921       .  S
C1039      C1040   1.401       .  A
C1039      H1043   1.084       .  S
C1040      C1044   1.474       .  S
C1040      C1041   1.404       .  A
C1041      C1042   1.398       .  A
C1041     Br1053   1.919       .  S
C1042      H1045   1.084       .  S
C1044      C1046   1.404       .  A
C1044      C1050   1.405       .  A
C1046      C1047   1.401       .  A
C1046      H1051   1.083       .  S
C1047      C1048   1.411       .  A
C1047     Br1055   1.921       .  S
C1048      C1049   1.405       .  A
C1049      C1050   1.395       .  A
C1049      H1052   1.084       .  S
C1050     Br1056   1.919       .  S
C1057      C1058   1.421       .  A
C1057      C1062   1.411       .  A
C1058      C1059   1.399       .  A
C1058     Br1074   1.923       .  S
C1059      C1060   1.399       .  A
C1059      H1063   1.084       .  S
C1060      C1064   1.476       .  S
C1060      C1061   1.404       .  A
C1061      C1062   1.397       .  A
C1061     Br1073   1.919       .  S
C1062      H1065   1.083       .  S
C1064      C1066   1.402       .  A
C1064      C1070   1.407       .  A
C1066      C1067   1.399       .  A
C1066      H1071   1.084       .  S
C1067      C1068   1.409       .  A
C1067     Br1075   1.916       .  S
C1068      C1069   1.405       .  A
C1069      C1070   1.398       .  A
C1069      H1072   1.084       .  S
C1070     Br1076   1.920       .  S
C1077      C1078   1.411       .  A
C1077      C1082   1.405       .  A
C1078      C1079   1.401       .  A
C1078     Br1094   1.918       .  S
C1079      C1080   1.402       .  A
C1079      H1083   1.084       .  S
C1080      C1084   1.478       .  S
C1080      C1081   1.408       .  A
C1081      C1082   1.399       .  A
C1081     Br1093   1.919       .  S
C1082      H1085   1.084       .  S
C1084      C1086   1.402       .  A
C1084      C1090   1.404       .  A
C1086      C1087   1.403       .  A
C1086      H1091   1.083       .  S
C1087      C1088   1.417       .  A
C1087     Br1095   1.923       .  S
C1088      C1089   1.408       .  A
C1089      C1090   1.396       .  A
C1089      H1092   1.083       .  S
C1090     Br1096   1.918       .  S
C1097      C1098   1.409       .  A
C1097      C1102   1.401       .  A
C1098      C1099   1.402       .  A
C1098     Br1114   1.922       .  S
C1099      C1100   1.405       .  A
C1099      H1103   1.083       .  S
C1100      C1104   1.482       .  S
C1100      C1101   1.409       .  A
C1101      C1102   1.399       .  A
C1101     Br1113   1.919       .  S
C1102      H1105   1.084       .  S
C1104      C1106   1.401       .  A
C1104      C1110   1.404       .  A
C1106      C1107   1.402       .  A
C1106      H1111   1.084       .  S
C1107      C1108   1.422       .  A
C1107     Br1115   1.924       .  S
C1108      C1109   1.413       .  A
C1109      C1110   1.399       .  A
C1109      H1112   1.083       .  S
C1110     Br1116   1.920       .  S
C1117      C1118   1.407       .  A
C1117      C1122   1.402       .  A
C1118      C1119   1.397       .  A
C1118     Br1134   1.920       .  S
C1119      C1120   1.402       .  A
C1119      H1123   1.083       .  S
C1120      C1124   1.471       .  S
C1120      C1121   1.407       .  A
C1121      C1122   1.397       .  A
C1121     Br1133   1.920       .  S
C1122      H1125   1.083       .  S
C1124      C1126   1.401       .  A
C1124      C1130   1.403       .  A
C1126      C1127   1.400       .  A
C1126      H1131   1.084       .  S
C1127      C1128   1.414       .  A
C1127     Br1135   1.921       .  S
C1128      C1129   1.407       .  A
C1129      C1130   1.395       .  A
C1129      H1132   1.083       .  S
C1130     Br1136   1.920       .  S
O1137     Zr1149   2.436       .  S
O1137      C1139   1.286       .  A
O1138      C1139   1.284       .  A
C1139      C1401   1.464       .  S
O1140     Zr1720   2.449       .  S
O1140      C1142   1.289       .  A
O1141     Zr1460   2.425   1_655  S
O1141      C1142   1.287       .  A
C1142      C1361   1.478       .  S
O1143     Zr1152   2.442       .  S
O1143      C1145   1.289       .  A
O1144      C1145   1.284       .  A
C1145      C1341   1.492       .  S
O1146     Zr1717   2.433       .  S
O1146      C1148   1.287       .  A
O1147     Zr1176   2.427   1_654  S
O1147      C1148   1.287       .  A
C1148      C1332   1.475       .  S
Zr1149     O1714   2.433       .  S
Zr1149     O1150   2.434       .  S
Zr1149     O1719   2.435       .  S
Zr1149     O1155   2.370   1_554  S
Zr1149     O1724   2.369   1_554  S
Zr1149     O1747   2.371       .  S
O1150      H1193   0.990       .  S
O1151     Zr1717   2.435       .  S
O1151      H1760   0.989   1_545  S
O1151      H1764   0.990   1_545  S
Zr1152     O1708   2.449       .  S
Zr1152     O1153   2.436       .  S
Zr1152     O1722   2.434       .  S
Zr1152     O2008   2.370       .  S
Zr1152     O1439   2.374       .  S
Zr1152     O1750   2.373   1_655  S
O1153      H1762   0.990       .  S
O1153      H1197   0.990       .  S
O1154     Zr1720   2.434       .  S
O1154      H1755   0.990   1_545  S
O1155     Zr1436   2.374       .  S
O1156     Zr1717   2.369   1_556  S
O1156     Zr2004   2.370       .  S
O1156     Zr1176   2.382   1_655  S
O1156      H1467   0.967       .  S
O1157     Zr1169   2.439       .  S
O1157      C1159   1.288       .  A
O1158      C1159   1.285       .  A
C1159      C1261   1.479       .  S
O1160     Zr1740   2.450       .  S
O1160      C1162   1.289       .  A
O1161     Zr1175   2.417       .  S
O1161      C1162   1.284       .  A
C1162      C1381   1.471       .  S
O1163     Zr1172   2.442       .  S
O1163      C1165   1.288       .  A
O1164      C1165   1.287       .  A
C1165      C1281   1.472       .  S
O1166     Zr1737   2.438       .  S
O1166      C1168   1.288       .  A
O1167     Zr1459   2.425       .  S
O1167      C1168   1.286       .  A
C1168      C1312   1.477       .  S
Zr1169     O1734   2.438   1_545  S
Zr1169     O1170   2.436       .  S
Zr1169     O1171   2.435       .  S
Zr1169     O1461   2.367       .  S
Zr1169     O2030   2.370   1_545  S
Zr1169     O1749   2.368   1_545  S
O1170      H1190   0.990       .  S
O1170      H1195   0.990       .  S
O1171      H1191   0.990       .  S
Zr1172     O1728   2.450   1_545  S
Zr1172     O1173   2.434       .  S
Zr1172     O1174   2.435       .  S
Zr1172     O1746   2.368   1_545  S
Zr1172     O1177   2.370       .  S
Zr1172     O1748   2.372   1_545  S
O1173      H1757   0.990       .  S
O1174      H1188   0.991       .  S
O1174      H1198   0.990   1_545  S
Zr1175     O1451   2.425       .  S
Zr1175     O1178   2.378       .  S
Zr1175     O1180   2.384       .  S
Zr1175     O1465   2.386       .  S
Zr1176     O1425   2.425   1_455  S
Zr1176     O1179   2.385   1_456  S
Zr1176     O1466   2.384       .  S
O1177     Zr1453   2.367       .  S
O1177      H1469   0.965       .  S
O1178     Zr2021   2.370       .  S
O1178     Zr1740   2.369       .  S
O1179     Zr1717   2.371       .  S
O1180     Zr1740   2.372       .  S
O1180      H1184   0.967       .  S
O1181     Zr1737   2.368       .  S
O1181     Zr1459   2.386       .  S
O1181      H1186   0.966       .  S
O1182     Zr1720   2.373   1_455  S
O1182     Zr1460   2.384       .  S
H1183      O1440   0.967       .  S
H1185      O1461   0.965       .  S
H1187      O1722   0.990       .  S
H1189      O1741   0.990       .  S
H1192      O1719   0.989       .  S
H1194      O1721   0.990       .  S
H1196      O1719   0.990       .  S
O1199     Zr1211   2.436       .  S
O1199      C1201   1.287       .  A
O1200     Zr1237   2.429       .  S
O1200      C1201   1.288       .  A
C1201      C1352   1.475       .  S
O1202     Zr1214   2.447       .  S
O1202      C1204   1.288       .  A
O1203     Zr1238   2.422       .  S
O1203      C1204   1.287       .  A
C1204      C1321   1.482       .  S
O1205     Zr1214   2.439       .  S
O1205      C1207   1.288       .  A
O1206     Zr1237   2.420       .  S
O1206      C1207   1.286       .  A
C1207      C1412   1.479       .  S
O1208     Zr1211   2.438       .  S
O1208      C1210   1.288       .  A
O1209     Zr1238   2.426       .  S
O1209      C1210   1.286       .  A
C1210      C1372   1.486       .  S
Zr1211     O1212   2.435       .  S
Zr1211     O1213   2.433       .  S
Zr1211     O1217   2.368       .  S
Zr1211     O1218   2.372       .  S
Zr1211     O1241   2.370       .  S
Zr1211     O1243   2.375       .  S
O1212      H1255   0.990       .  S
O1213      H1254   0.991       .  S
O1213      H1258   0.989       .  S
Zr1214     O1215   2.436       .  S
Zr1214     O1216   2.434       .  S
Zr1214     O1218   2.371       .  S
Zr1214     O1217   2.370       .  S
Zr1214     O1242   2.370       .  S
Zr1214     O1244   2.371       .  S
O1215      H1256   0.990       .  S
O1215      H1259   0.990       .  S
O1216      H1249   0.990       .  S
O1217     Zr1237   2.382       .  S
O1218     Zr1238   2.384       .  S
O1218      H1245   0.966       .  S
O1219     Zr1231   2.441       .  S
O1219      C1221   1.288       .  A
O1220     Zr1238   2.427       .  S
O1220      C1221   1.286       .  A
C1221      C1292   1.487       .  S
O1222     Zr1234   2.439       .  S
O1222      C1224   1.287       .  A
O1223     Zr1237   2.429       .  S
O1223      C1224   1.288       .  A
C1224      C1301   1.482       .  S
O1225     Zr1234   2.441       .  S
O1225      C1227   1.287       .  A
O1226     Zr1238   2.420       .  S
O1226      C1227   1.285       .  A
C1227      C1272   1.465       .  S
O1228     Zr1231   2.443       .  S
O1228      C1230   1.289       .  A
O1229     Zr1237   2.430       .  S
O1229      C1230   1.286       .  A
C1230      C1392   1.499       .  S
Zr1231     O1232   2.437       .  S
Zr1231     O1233   2.435       .  S
Zr1231     O1239   2.366       .  S
Zr1231     O1240   2.371       .  S
Zr1231     O1243   2.371       .  S
Zr1231     O1241   2.374       .  S
O1232      H1252   0.990       .  S
O1232      H1257   0.990       .  S
O1233      H1253   0.990       .  S
Zr1234     O1235   2.433       .  S
Zr1234     O1236   2.433       .  S
Zr1234     O1240   2.373       .  S
Zr1234     O1239   2.367       .  S
Zr1234     O1244   2.370       .  S
Zr1234     O1242   2.370       .  S
O1235      H1251   0.990       .  S
O1236      H1250   0.990       .  S
O1236      H1260   0.990       .  S
Zr1237     O1240   2.377       .  S
Zr1237     O1242   2.388       .  S
Zr1237     O1243   2.385       .  S
Zr1238     O1239   2.384       .  S
Zr1238     O1241   2.381       .  S
Zr1238     O1244   2.383       .  S
O1239      H1247   0.964       .  S
O1242      H1246   0.966       .  S
O1243      H1248   0.966       .  S
C1261      C1262   1.415       .  A
C1261      C1266   1.406       .  A
C1262      C1263   1.396       .  A
C1262     Br1278   1.919       .  S
C1263      C1264   1.400       .  A
C1263      H1267   1.084       .  S
C1264      C1268   1.473       .  S
C1264      C1265   1.406       .  A
C1265      C1266   1.396       .  A
C1265     Br1277   1.918       .  S
C1266      H1269   1.084       .  S
C1268      C1270   1.401       .  A
C1268      C1274   1.409       .  A
C1270      C1271   1.396       .  A
C1270      H1275   1.084       .  S
C1271      C1272   1.408       .  A
C1271     Br1279   1.920       .  S
C1272      C1273   1.401       .  A
C1273      C1274   1.399       .  A
C1273      H1276   1.084       .  S
C1274     Br1280   1.920       .  S
C1281      C1282   1.411       .  A
C1281      C1286   1.403       .  A
C1282      C1283   1.398       .  A
C1282     Br1298   1.919       .  S
C1283      C1284   1.400       .  A
C1283      H1287   1.084       .  S
C1284      C1288   1.475       .  S
C1284      C1285   1.408       .  A
C1285      C1286   1.400       .  A
C1285     Br1297   1.917       .  S
C1286      H1289   1.084       .  S
C1288      C1290   1.400       .  A
C1288      C1294   1.404       .  A
C1290      C1291   1.400       .  A
C1290      H1295   1.084       .  S
C1291      C1292   1.418       .  A
C1291     Br1299   1.920       .  S
C1292      C1293   1.409       .  A
C1293      C1294   1.397       .  A
C1293      H1296   1.083       .  S
C1294     Br1300   1.918       .  S
C1301      C1302   1.416       .  A
C1301      C1306   1.407       .  A
C1302      C1303   1.400       .  A
C1302     Br1318   1.922       .  S
C1303      C1304   1.401       .  A
C1303      H1307   1.084       .  S
C1304      C1308   1.477       .  S
C1304      C1305   1.407       .  A
C1305      C1306   1.399       .  A
C1305     Br1317   1.920       .  S
C1306      H1309   1.083       .  S
C1308      C1310   1.403       .  A
C1308      C1314   1.406       .  A
C1310      C1311   1.402       .  A
C1310      H1315   1.083       .  S
C1311      C1312   1.412       .  A
C1311     Br1319   1.920       .  S
C1312      C1313   1.405       .  A
C1313      C1314   1.396       .  A
C1313      H1316   1.084       .  S
C1314     Br1320   1.918       .  S
C1321      C1322   1.415       .  A
C1321      C1326   1.407       .  A
C1322      C1323   1.401       .  A
C1322     Br1338   1.921       .  S
C1323      C1324   1.401       .  A
C1323      H1327   1.084       .  S
C1324      C1328   1.474       .  S
C1324      C1325   1.404       .  A
C1325      C1326   1.398       .  A
C1325     Br1337   1.919       .  S
C1326      H1329   1.084       .  S
C1328      C1330   1.404       .  A
C1328      C1334   1.405       .  A
C1330      C1331   1.401       .  A
C1330      H1335   1.083       .  S
C1331      C1332   1.411       .  A
C1331     Br1339   1.921       .  S
C1332      C1333   1.405       .  A
C1333      C1334   1.395       .  A
C1333      H1336   1.084       .  S
C1334     Br1340   1.919       .  S
C1341      C1342   1.421       .  A
C1341      C1346   1.411       .  A
C1342      C1343   1.399       .  A
C1342     Br1358   1.923       .  S
C1343      C1344   1.399       .  A
C1343      H1347   1.084       .  S
C1344      C1348   1.476       .  S
C1344      C1345   1.404       .  A
C1345      C1346   1.397       .  A
C1345     Br1357   1.919       .  S
C1346      H1349   1.083       .  S
C1348      C1350   1.402       .  A
C1348      C1354   1.407       .  A
C1350      C1351   1.399       .  A
C1350      H1355   1.084       .  S
C1351      C1352   1.409       .  A
C1351     Br1359   1.916       .  S
C1352      C1353   1.405       .  A
C1353      C1354   1.398       .  A
C1353      H1356   1.084       .  S
C1354     Br1360   1.920       .  S
C1361      C1362   1.411       .  A
C1361      C1366   1.405       .  A
C1362      C1363   1.401       .  A
C1362     Br1378   1.918       .  S
C1363      C1364   1.402       .  A
C1363      H1367   1.084       .  S
C1364      C1368   1.478       .  S
C1364      C1365   1.408       .  A
C1365      C1366   1.399       .  A
C1365     Br1377   1.919       .  S
C1366      H1369   1.084       .  S
C1368      C1370   1.402       .  A
C1368      C1374   1.404       .  A
C1370      C1371   1.403       .  A
C1370      H1375   1.083       .  S
C1371      C1372   1.417       .  A
C1371     Br1379   1.923       .  S
C1372      C1373   1.408       .  A
C1373      C1374   1.396       .  A
C1373      H1376   1.083       .  S
C1374     Br1380   1.918       .  S
C1381      C1382   1.409       .  A
C1381      C1386   1.401       .  A
C1382      C1383   1.402       .  A
C1382     Br1398   1.922       .  S
C1383      C1384   1.405       .  A
C1383      H1387   1.083       .  S
C1384      C1388   1.482       .  S
C1384      C1385   1.409       .  A
C1385      C1386   1.399       .  A
C1385     Br1397   1.919       .  S
C1386      H1389   1.084       .  S
C1388      C1390   1.401       .  A
C1388      C1394   1.404       .  A
C1390      C1391   1.402       .  A
C1390      H1395   1.084       .  S
C1391      C1392   1.422       .  A
C1391     Br1399   1.924       .  S
C1392      C1393   1.413       .  A
C1393      C1394   1.399       .  A
C1393      H1396   1.083       .  S
C1394     Br1400   1.920       .  S
C1401      C1402   1.407       .  A
C1401      C1406   1.402       .  A
C1402      C1403   1.397       .  A
C1402     Br1418   1.920       .  S
C1403      C1404   1.402       .  A
C1403      H1407   1.083       .  S
C1404      C1408   1.471       .  S
C1404      C1405   1.407       .  A
C1405      C1406   1.397       .  A
C1405     Br1417   1.920       .  S
C1406      H1409   1.083       .  S
C1408      C1410   1.401       .  A
C1408      C1414   1.403       .  A
C1410      C1411   1.400       .  A
C1410      H1415   1.084       .  S
C1411      C1412   1.414       .  A
C1411     Br1419   1.921       .  S
C1412      C1413   1.407       .  A
C1413      C1414   1.395       .  A
C1413      H1416   1.083       .  S
C1414     Br1420   1.920       .  S
O1421     Zr1433   2.436       .  S
O1421      C1423   1.286       .  A
O1422      C1423   1.284       .  A
C1423      C1685   1.464       .  S
O1424     Zr2004   2.449       .  S
O1424      C1426   1.289       .  A
O1425      C1426   1.287       .  A
C1426      C1645   1.478       .  S
O1427     Zr1436   2.442       .  S
O1427      C1429   1.289       .  A
O1428      C1429   1.284       .  A
C1429      C1625   1.492       .  S
O1430     Zr2001   2.433       .  S
O1430      C1432   1.287       .  A
O1431     Zr1460   2.427   1_655  S
O1431      C1432   1.287       .  A
C1432      C1616   1.475       .  S
Zr1433     O1998   2.433       .  S
Zr1433     O1434   2.434       .  S
Zr1433     O2003   2.435       .  S
Zr1433     O1439   2.371       .  S
Zr1433     O2008   2.369       .  S
Zr1433     O2031   2.371       .  S
O1434      H1477   0.990       .  S
O1435     Zr2001   2.435       .  S
O1435      H2044   0.989   1_545  S
O1435      H2048   0.990   1_545  S
Zr1436     O1992   2.449       .  S
Zr1436     O1437   2.436       .  S
Zr1436     O2006   2.434       .  S
Zr1436     O1724   2.370       .  S
Zr1436     O2034   2.373   1_655  S
O1437      H2046   0.990       .  S
O1437      H1481   0.990       .  S
O1438     Zr2004   2.434       .  S
O1438      H2039   0.990   1_545  S
O1440     Zr2001   2.369       .  S
O1440     Zr1720   2.370       .  S
O1440     Zr1460   2.382   1_655  S
O1441     Zr1453   2.439       .  S
O1441      C1443   1.288       .  A
O1442      C1443   1.285       .  A
C1443      C1545   1.479       .  S
O1444     Zr2024   2.450       .  S
O1444      C1446   1.289       .  A
O1445     Zr1459   2.417   1_556  S
O1445      C1446   1.284       .  A
C1446      C1665   1.471       .  S
O1447     Zr1456   2.442       .  S
O1447      C1449   1.288       .  A
O1448      C1449   1.287       .  A
C1449      C1565   1.472       .  S
O1450     Zr2021   2.438       .  S
O1450      C1452   1.288       .  A
O1451      C1452   1.286       .  A
C1452      C1596   1.477       .  S
Zr1453     O2018   2.438   1_545  S
Zr1453     O1454   2.436       .  S
Zr1453     O1455   2.435       .  S
Zr1453     O1746   2.370   1_545  S
Zr1453     O2033   2.368   1_545  S
O1454      H1474   0.990       .  S
O1454      H1479   0.990       .  S
O1455      H1475   0.990       .  S
Zr1456     O2012   2.450   1_545  S
Zr1456     O1457   2.434       .  S
Zr1456     O1458   2.435       .  S
Zr1456     O2030   2.369   1_546  S
Zr1456     O1461   2.370   1_556  S
Zr1456     O2032   2.372   1_545  S
O1457      H2041   0.990       .  S
O1458      H1472   0.991       .  S
O1458      H1482   0.990   1_545  S
Zr1459     O1462   2.378       .  S
Zr1459     O1464   2.384   1_554  S
Zr1460     O1463   2.385   1_455  S
O1462     Zr1737   2.370       .  S
O1462     Zr2024   2.369   1_554  S
O1463     Zr2001   2.371       .  S
O1464     Zr2024   2.372       .  S
O1464      H1468   0.967       .  S
O1465     Zr2021   2.368       .  S
O1465      H1470   0.966       .  S
O1466     Zr2004   2.373   1_455  S
H1471      O2006   0.990       .  S
H1473      O2025   0.990       .  S
H1476      O2003   0.989       .  S
H1478      O2005   0.990       .  S
H1480      O2003   0.990       .  S
O1483     Zr1495   2.436       .  S
O1483      C1485   1.287       .  A
O1484     Zr1521   2.429       .  S
O1484      C1485   1.288       .  A
C1485      C1636   1.475       .  S
O1486     Zr1498   2.447       .  S
O1486      C1488   1.288       .  A
O1487     Zr1522   2.422       .  S
O1487      C1488   1.287       .  A
C1488      C1605   1.482       .  S
O1489     Zr1498   2.439       .  S
O1489      C1491   1.288       .  A
O1490     Zr1521   2.420       .  S
O1490      C1491   1.286       .  A
C1491      C1696   1.479       .  S
O1492     Zr1495   2.438       .  S
O1492      C1494   1.288       .  A
O1493     Zr1522   2.426       .  S
O1493      C1494   1.286       .  A
C1494      C1656   1.486       .  S
Zr1495     O1496   2.435       .  S
Zr1495     O1497   2.433       .  S
Zr1495     O1501   2.368       .  S
Zr1495     O1502   2.372       .  S
Zr1495     O1525   2.370       .  S
Zr1495     O1527   2.375       .  S
O1496      H1539   0.990       .  S
O1497      H1538   0.991       .  S
O1497      H1542   0.989       .  S
Zr1498     O1499   2.436       .  S
Zr1498     O1500   2.434       .  S
Zr1498     O1502   2.371       .  S
Zr1498     O1501   2.370       .  S
Zr1498     O1526   2.370       .  S
Zr1498     O1528   2.371       .  S
O1499      H1540   0.990       .  S
O1499      H1543   0.990       .  S
O1500      H1533   0.990       .  S
O1501     Zr1521   2.382       .  S
O1502     Zr1522   2.384       .  S
O1502      H1529   0.966       .  S
O1503     Zr1515   2.441       .  S
O1503      C1505   1.288       .  A
O1504     Zr1522   2.427       .  S
O1504      C1505   1.286       .  A
C1505      C1576   1.487       .  S
O1506     Zr1518   2.439       .  S
O1506      C1508   1.287       .  A
O1507     Zr1521   2.429       .  S
O1507      C1508   1.288       .  A
C1508      C1585   1.482       .  S
O1509     Zr1518   2.441       .  S
O1509      C1511   1.287       .  A
O1510     Zr1522   2.420       .  S
O1510      C1511   1.285       .  A
C1511      C1556   1.465       .  S
O1512     Zr1515   2.443       .  S
O1512      C1514   1.289       .  A
O1513     Zr1521   2.430       .  S
O1513      C1514   1.286       .  A
C1514      C1676   1.499       .  S
Zr1515     O1516   2.437       .  S
Zr1515     O1517   2.435       .  S
Zr1515     O1523   2.366       .  S
Zr1515     O1524   2.371       .  S
Zr1515     O1527   2.371       .  S
Zr1515     O1525   2.374       .  S
O1516      H1536   0.990       .  S
O1516      H1541   0.990       .  S
O1517      H1537   0.990       .  S
Zr1518     O1519   2.433       .  S
Zr1518     O1520   2.433       .  S
Zr1518     O1524   2.373       .  S
Zr1518     O1523   2.367       .  S
Zr1518     O1528   2.370       .  S
Zr1518     O1526   2.370       .  S
O1519      H1535   0.990       .  S
O1520      H1534   0.990       .  S
O1520      H1544   0.990       .  S
Zr1521     O1524   2.377       .  S
Zr1521     O1526   2.388       .  S
Zr1521     O1527   2.385       .  S
Zr1522     O1523   2.384       .  S
Zr1522     O1525   2.381       .  S
Zr1522     O1528   2.383       .  S
O1523      H1531   0.963       .  S
O1526      H1530   0.966       .  S
O1527      H1532   0.966       .  S
C1545      C1546   1.415       .  A
C1545      C1550   1.406       .  A
C1546      C1547   1.396       .  A
C1546     Br1562   1.919       .  S
C1547      C1548   1.400       .  A
C1547      H1551   1.084       .  S
C1548      C1552   1.473       .  S
C1548      C1549   1.406       .  A
C1549      C1550   1.396       .  A
C1549     Br1561   1.918       .  S
C1550      H1553   1.084       .  S
C1552      C1554   1.401       .  A
C1552      C1558   1.409       .  A
C1554      C1555   1.396       .  A
C1554      H1559   1.084       .  S
C1555      C1556   1.408       .  A
C1555     Br1563   1.920       .  S
C1556      C1557   1.401       .  A
C1557      C1558   1.399       .  A
C1557      H1560   1.084       .  S
C1558     Br1564   1.920       .  S
C1565      C1566   1.411       .  A
C1565      C1570   1.403       .  A
C1566      C1567   1.398       .  A
C1566     Br1582   1.919       .  S
C1567      C1568   1.400       .  A
C1567      H1571   1.084       .  S
C1568      C1572   1.475       .  S
C1568      C1569   1.408       .  A
C1569      C1570   1.400       .  A
C1569     Br1581   1.917       .  S
C1570      H1573   1.084       .  S
C1572      C1574   1.400       .  A
C1572      C1578   1.404       .  A
C1574      C1575   1.400       .  A
C1574      H1579   1.084       .  S
C1575      C1576   1.418       .  A
C1575     Br1583   1.920       .  S
C1576      C1577   1.409       .  A
C1577      C1578   1.397       .  A
C1577      H1580   1.083       .  S
C1578     Br1584   1.918       .  S
C1585      C1586   1.416       .  A
C1585      C1590   1.407       .  A
C1586      C1587   1.400       .  A
C1586     Br1602   1.922       .  S
C1587      C1588   1.401       .  A
C1587      H1591   1.084       .  S
C1588      C1592   1.477       .  S
C1588      C1589   1.407       .  A
C1589      C1590   1.399       .  A
C1589     Br1601   1.920       .  S
C1590      H1593   1.083       .  S
C1592      C1594   1.403       .  A
C1592      C1598   1.406       .  A
C1594      C1595   1.402       .  A
C1594      H1599   1.083       .  S
C1595      C1596   1.412       .  A
C1595     Br1603   1.920       .  S
C1596      C1597   1.405       .  A
C1597      C1598   1.396       .  A
C1597      H1600   1.084       .  S
C1598     Br1604   1.918       .  S
C1605      C1606   1.415       .  A
C1605      C1610   1.407       .  A
C1606      C1607   1.401       .  A
C1606     Br1622   1.921       .  S
C1607      C1608   1.401       .  A
C1607      H1611   1.084       .  S
C1608      C1612   1.474       .  S
C1608      C1609   1.404       .  A
C1609      C1610   1.398       .  A
C1609     Br1621   1.919       .  S
C1610      H1613   1.084       .  S
C1612      C1614   1.404       .  A
C1612      C1618   1.405       .  A
C1614      C1615   1.401       .  A
C1614      H1619   1.083       .  S
C1615      C1616   1.411       .  A
C1615     Br1623   1.921       .  S
C1616      C1617   1.405       .  A
C1617      C1618   1.395       .  A
C1617      H1620   1.084       .  S
C1618     Br1624   1.919       .  S
C1625      C1626   1.421       .  A
C1625      C1630   1.411       .  A
C1626      C1627   1.399       .  A
C1626     Br1642   1.923       .  S
C1627      C1628   1.399       .  A
C1627      H1631   1.084       .  S
C1628      C1632   1.476       .  S
C1628      C1629   1.404       .  A
C1629      C1630   1.397       .  A
C1629     Br1641   1.919       .  S
C1630      H1633   1.083       .  S
C1632      C1634   1.402       .  A
C1632      C1638   1.407       .  A
C1634      C1635   1.399       .  A
C1634      H1639   1.084       .  S
C1635      C1636   1.409       .  A
C1635     Br1643   1.916       .  S
C1636      C1637   1.405       .  A
C1637      C1638   1.398       .  A
C1637      H1640   1.084       .  S
C1638     Br1644   1.920       .  S
C1645      C1646   1.411       .  A
C1645      C1650   1.405       .  A
C1646      C1647   1.401       .  A
C1646     Br1662   1.918       .  S
C1647      C1648   1.402       .  A
C1647      H1651   1.084       .  S
C1648      C1652   1.478       .  S
C1648      C1649   1.408       .  A
C1649      C1650   1.399       .  A
C1649     Br1661   1.919       .  S
C1650      H1653   1.084       .  S
C1652      C1654   1.402       .  A
C1652      C1658   1.404       .  A
C1654      C1655   1.403       .  A
C1654      H1659   1.083       .  S
C1655      C1656   1.417       .  A
C1655     Br1663   1.923       .  S
C1656      C1657   1.408       .  A
C1657      C1658   1.396       .  A
C1657      H1660   1.083       .  S
C1658     Br1664   1.918       .  S
C1665      C1666   1.409       .  A
C1665      C1670   1.401       .  A
C1666      C1667   1.402       .  A
C1666     Br1682   1.922       .  S
C1667      C1668   1.405       .  A
C1667      H1671   1.083       .  S
C1668      C1672   1.482       .  S
C1668      C1669   1.409       .  A
C1669      C1670   1.399       .  A
C1669     Br1681   1.919       .  S
C1670      H1673   1.084       .  S
C1672      C1674   1.401       .  A
C1672      C1678   1.404       .  A
C1674      C1675   1.402       .  A
C1674      H1679   1.084       .  S
C1675      C1676   1.422       .  A
C1675     Br1683   1.924       .  S
C1676      C1677   1.413       .  A
C1677      C1678   1.399       .  A
C1677      H1680   1.083       .  S
C1678     Br1684   1.920       .  S
C1685      C1686   1.407       .  A
C1685      C1690   1.402       .  A
C1686      C1687   1.397       .  A
C1686     Br1702   1.920       .  S
C1687      C1688   1.402       .  A
C1687      H1691   1.083       .  S
C1688      C1692   1.471       .  S
C1688      C1689   1.407       .  A
C1689      C1690   1.397       .  A
C1689     Br1701   1.920       .  S
C1690      H1693   1.083       .  S
C1692      C1694   1.401       .  A
C1692      C1698   1.403       .  A
C1694      C1695   1.400       .  A
C1694      H1699   1.084       .  S
C1695      C1696   1.414       .  A
C1695     Br1703   1.921       .  S
C1696      C1697   1.407       .  A
C1697      C1698   1.395       .  A
C1697      H1700   1.083       .  S
C1698     Br1704   1.920       .  S
O1705     Zr1717   2.436   1_565  S
O1705      C1707   1.286       .  A
O1706      C1707   1.284       .  A
C1707      C1969   1.464       .  S
O1708      C1710   1.289       .  A
O1709     Zr2028   2.425   1_655  S
O1709      C1710   1.287       .  A
C1710      C1929   1.478       .  S
O1711     Zr1720   2.442   1_565  S
O1711      C1713   1.289       .  A
O1712      C1713   1.284       .  A
C1713      C1909   1.492       .  S
O1714      C1716   1.287       .  A
O1715     Zr1744   2.427   1_654  S
O1715      C1716   1.287       .  A
C1716      C1900   1.475       .  S
Zr1717     O1718   2.434       .  S
Zr1717     O1723   2.371   1_544  S
O1718      H1761   0.990       .  S
Zr1720     O1721   2.436       .  S
Zr1720     O2007   2.374   1_545  S
O1721      H1765   0.990       .  S
O1723     Zr2004   2.374   1_565  S
O1724     Zr1744   2.382   1_655  S
O1724      H2035   0.967       .  S
O1725     Zr1737   2.439       .  S
O1725      C1727   1.288       .  A
O1726      C1727   1.285       .  A
C1727      C1829   1.479       .  S
O1728      C1730   1.289       .  A
O1729     Zr1743   2.417       .  S
O1729      C1730   1.284       .  A
C1730      C1949   1.471       .  S
O1731     Zr1740   2.442       .  S
O1731      C1733   1.288       .  A
O1732      C1733   1.287       .  A
C1733      C1849   1.472       .  S
O1734      C1736   1.288       .  A
O1735     Zr2027   2.425       .  S
O1735      C1736   1.286       .  A
C1736      C1880   1.477       .  S
Zr1737     O1738   2.436       .  S
Zr1737     O1739   2.435       .  S
Zr1737     O2029   2.367       .  S
O1738      H1758   0.990       .  S
O1738      H1763   0.990       .  S
O1739      H1759   0.990       .  S
Zr1740     O1741   2.434       .  S
Zr1740     O1742   2.435       .  S
Zr1740     O1745   2.370       .  S
O1742      H1756   0.990       .  S
O1742      H1766   0.990       .  S
Zr1743     O2019   2.425       .  S
Zr1743     O1746   2.378       .  S
Zr1743     O1748   2.384       .  S
Zr1743     O2033   2.386       .  S
Zr1744     O1993   2.425   1_455  S
Zr1744     O1747   2.385   1_456  S
Zr1744     O2034   2.384       .  S
O1745     Zr2021   2.367       .  S
O1745      H2037   0.965       .  S
O1748      H1752   0.967       .  S
O1749     Zr2027   2.386       .  S
O1749      H1754   0.966       .  S
O1750     Zr2028   2.384       .  S
H1751      O2008   0.967       .  S
H1753      O2029   0.965       .  S
O1767     Zr1779   2.436       .  S
O1767      C1769   1.287       .  A
O1768     Zr1805   2.429       .  S
O1768      C1769   1.288       .  A
C1769      C1920   1.475       .  S
O1770     Zr1782   2.447       .  S
O1770      C1772   1.288       .  A
O1771     Zr1806   2.422       .  S
O1771      C1772   1.287       .  A
C1772      C1889   1.482       .  S
O1773     Zr1782   2.439       .  S
O1773      C1775   1.288       .  A
O1774     Zr1805   2.420       .  S
O1774      C1775   1.286       .  A
C1775      C1980   1.479       .  S
O1776     Zr1779   2.438       .  S
O1776      C1778   1.288       .  A
O1777     Zr1806   2.426       .  S
O1777      C1778   1.286       .  A
C1778      C1940   1.486       .  S
Zr1779     O1780   2.435       .  S
Zr1779     O1781   2.433       .  S
Zr1779     O1785   2.368       .  S
Zr1779     O1786   2.372       .  S
Zr1779     O1809   2.370       .  S
Zr1779     O1811   2.375       .  S
O1780      H1823   0.990       .  S
O1781      H1822   0.991       .  S
O1781      H1826   0.989       .  S
Zr1782     O1783   2.436       .  S
Zr1782     O1784   2.434       .  S
Zr1782     O1786   2.371       .  S
Zr1782     O1785   2.370       .  S
Zr1782     O1810   2.370       .  S
Zr1782     O1812   2.371       .  S
O1783      H1824   0.990       .  S
O1783      H1827   0.990       .  S
O1784      H1817   0.990       .  S
O1785     Zr1805   2.382       .  S
O1786     Zr1806   2.384       .  S
O1786      H1813   0.966       .  S
O1787     Zr1799   2.441       .  S
O1787      C1789   1.288       .  A
O1788     Zr1806   2.427       .  S
O1788      C1789   1.286       .  A
C1789      C1860   1.487       .  S
O1790     Zr1802   2.439       .  S
O1790      C1792   1.287       .  A
O1791     Zr1805   2.429       .  S
O1791      C1792   1.288       .  A
C1792      C1869   1.482       .  S
O1793     Zr1802   2.441       .  S
O1793      C1795   1.287       .  A
O1794     Zr1806   2.420       .  S
O1794      C1795   1.285       .  A
C1795      C1840   1.465       .  S
O1796     Zr1799   2.443       .  S
O1796      C1798   1.289       .  A
O1797     Zr1805   2.430       .  S
O1797      C1798   1.286       .  A
C1798      C1960   1.499       .  S
Zr1799     O1800   2.437       .  S
Zr1799     O1801   2.435       .  S
Zr1799     O1807   2.367       .  S
Zr1799     O1808   2.371       .  S
Zr1799     O1811   2.371       .  S
Zr1799     O1809   2.374       .  S
O1800      H1820   0.990       .  S
O1800      H1825   0.990       .  S
O1801      H1821   0.990       .  S
Zr1802     O1803   2.433       .  S
Zr1802     O1804   2.433       .  S
Zr1802     O1808   2.373       .  S
Zr1802     O1807   2.367       .  S
Zr1802     O1812   2.370       .  S
Zr1802     O1810   2.370       .  S
O1803      H1819   0.990       .  S
O1804      H1818   0.990       .  S
O1804      H1828   0.990       .  S
Zr1805     O1808   2.377       .  S
Zr1805     O1810   2.388       .  S
Zr1805     O1811   2.385       .  S
Zr1806     O1807   2.384       .  S
Zr1806     O1809   2.381       .  S
Zr1806     O1812   2.383       .  S
O1807      H1815   0.963       .  S
O1810      H1814   0.966       .  S
O1811      H1816   0.966       .  S
C1829      C1830   1.415       .  A
C1829      C1834   1.406       .  A
C1830      C1831   1.396       .  A
C1830     Br1846   1.919       .  S
C1831      C1832   1.400       .  A
C1831      H1835   1.084       .  S
C1832      C1836   1.473       .  S
C1832      C1833   1.406       .  A
C1833      C1834   1.396       .  A
C1833     Br1845   1.918       .  S
C1834      H1837   1.084       .  S
C1836      C1838   1.401       .  A
C1836      C1842   1.409       .  A
C1838      C1839   1.396       .  A
C1838      H1843   1.084       .  S
C1839      C1840   1.408       .  A
C1839     Br1847   1.920       .  S
C1840      C1841   1.401       .  A
C1841      C1842   1.399       .  A
C1841      H1844   1.084       .  S
C1842     Br1848   1.920       .  S
C1849      C1850   1.411       .  A
C1849      C1854   1.403       .  A
C1850      C1851   1.398       .  A
C1850     Br1866   1.919       .  S
C1851      C1852   1.400       .  A
C1851      H1855   1.084       .  S
C1852      C1856   1.475       .  S
C1852      C1853   1.408       .  A
C1853      C1854   1.400       .  A
C1853     Br1865   1.917       .  S
C1854      H1857   1.084       .  S
C1856      C1858   1.400       .  A
C1856      C1862   1.404       .  A
C1858      C1859   1.400       .  A
C1858      H1863   1.084       .  S
C1859      C1860   1.418       .  A
C1859     Br1867   1.920       .  S
C1860      C1861   1.409       .  A
C1861      C1862   1.397       .  A
C1861      H1864   1.083       .  S
C1862     Br1868   1.918       .  S
C1869      C1870   1.416       .  A
C1869      C1874   1.407       .  A
C1870      C1871   1.400       .  A
C1870     Br1886   1.922       .  S
C1871      C1872   1.401       .  A
C1871      H1875   1.084       .  S
C1872      C1876   1.477       .  S
C1872      C1873   1.407       .  A
C1873      C1874   1.399       .  A
C1873     Br1885   1.920       .  S
C1874      H1877   1.083       .  S
C1876      C1878   1.403       .  A
C1876      C1882   1.406       .  A
C1878      C1879   1.402       .  A
C1878      H1883   1.083       .  S
C1879      C1880   1.412       .  A
C1879     Br1887   1.920       .  S
C1880      C1881   1.405       .  A
C1881      C1882   1.396       .  A
C1881      H1884   1.084       .  S
C1882     Br1888   1.918       .  S
C1889      C1890   1.415       .  A
C1889      C1894   1.407       .  A
C1890      C1891   1.401       .  A
C1890     Br1906   1.921       .  S
C1891      C1892   1.401       .  A
C1891      H1895   1.084       .  S
C1892      C1896   1.474       .  S
C1892      C1893   1.404       .  A
C1893      C1894   1.398       .  A
C1893     Br1905   1.919       .  S
C1894      H1897   1.084       .  S
C1896      C1898   1.404       .  A
C1896      C1902   1.405       .  A
C1898      C1899   1.401       .  A
C1898      H1903   1.083       .  S
C1899      C1900   1.411       .  A
C1899     Br1907   1.921       .  S
C1900      C1901   1.405       .  A
C1901      C1902   1.395       .  A
C1901      H1904   1.084       .  S
C1902     Br1908   1.919       .  S
C1909      C1910   1.421       .  A
C1909      C1914   1.411       .  A
C1910      C1911   1.399       .  A
C1910     Br1926   1.923       .  S
C1911      C1912   1.399       .  A
C1911      H1915   1.084       .  S
C1912      C1916   1.476       .  S
C1912      C1913   1.404       .  A
C1913      C1914   1.397       .  A
C1913     Br1925   1.919       .  S
C1914      H1917   1.083       .  S
C1916      C1918   1.402       .  A
C1916      C1922   1.407       .  A
C1918      C1919   1.399       .  A
C1918      H1923   1.084       .  S
C1919      C1920   1.409       .  A
C1919     Br1927   1.916       .  S
C1920      C1921   1.405       .  A
C1921      C1922   1.398       .  A
C1921      H1924   1.084       .  S
C1922     Br1928   1.920       .  S
C1929      C1930   1.411       .  A
C1929      C1934   1.405       .  A
C1930      C1931   1.401       .  A
C1930     Br1946   1.918       .  S
C1931      C1932   1.402       .  A
C1931      H1935   1.084       .  S
C1932      C1936   1.478       .  S
C1932      C1933   1.408       .  A
C1933      C1934   1.399       .  A
C1933     Br1945   1.919       .  S
C1934      H1937   1.084       .  S
C1936      C1938   1.402       .  A
C1936      C1942   1.404       .  A
C1938      C1939   1.403       .  A
C1938      H1943   1.083       .  S
C1939      C1940   1.417       .  A
C1939     Br1947   1.923       .  S
C1940      C1941   1.408       .  A
C1941      C1942   1.396       .  A
C1941      H1944   1.083       .  S
C1942     Br1948   1.918       .  S
C1949      C1950   1.409       .  A
C1949      C1954   1.401       .  A
C1950      C1951   1.402       .  A
C1950     Br1966   1.922       .  S
C1951      C1952   1.405       .  A
C1951      H1955   1.083       .  S
C1952      C1956   1.482       .  S
C1952      C1953   1.409       .  A
C1953      C1954   1.399       .  A
C1953     Br1965   1.919       .  S
C1954      H1957   1.084       .  S
C1956      C1958   1.401       .  A
C1956      C1962   1.404       .  A
C1958      C1959   1.402       .  A
C1958      H1963   1.084       .  S
C1959      C1960   1.422       .  A
C1959     Br1967   1.924       .  S
C1960      C1961   1.413       .  A
C1961      C1962   1.399       .  A
C1961      H1964   1.083       .  S
C1962     Br1968   1.920       .  S
C1969      C1970   1.407       .  A
C1969      C1974   1.402       .  A
C1970      C1971   1.397       .  A
C1970     Br1986   1.920       .  S
C1971      C1972   1.402       .  A
C1971      H1975   1.083       .  S
C1972      C1976   1.471       .  S
C1972      C1973   1.407       .  A
C1973      C1974   1.397       .  A
C1973     Br1985   1.920       .  S
C1974      H1977   1.083       .  S
C1976      C1978   1.401       .  A
C1976      C1982   1.403       .  A
C1978      C1979   1.400       .  A
C1978      H1983   1.084       .  S
C1979      C1980   1.414       .  A
C1979     Br1987   1.921       .  S
C1980      C1981   1.407       .  A
C1981      C1982   1.395       .  A
C1981      H1984   1.083       .  S
C1982     Br1988   1.920       .  S
O1989     Zr2001   2.436   1_565  S
O1989      C1991   1.286       .  A
O1990      C1991   1.284       .  A
C1991      C2253   1.464       .  S
O1992      C1994   1.289       .  A
O1993      C1994   1.287       .  A
C1994      C2213   1.478       .  S
O1995     Zr2004   2.442   1_565  S
O1995      C1997   1.289       .  A
O1996      C1997   1.284       .  A
C1997      C2193   1.492       .  S
O1998      C2000   1.287       .  A
O1999     Zr2028   2.427   1_655  S
O1999      C2000   1.287       .  A
C2000      C2184   1.475       .  S
Zr2001     O2002   2.434       .  S
Zr2001     O2007   2.371   1_545  S
O2002      H2045   0.990       .  S
Zr2004     O2005   2.436       .  S
O2005      H2049   0.990       .  S
O2008     Zr2028   2.382   1_655  S
O2009     Zr2021   2.439       .  S
O2009      C2011   1.288       .  A
O2010      C2011   1.285       .  A
C2011      C2113   1.479       .  S
O2012      C2014   1.289       .  A
O2013     Zr2027   2.417   1_556  S
O2013      C2014   1.284       .  A
C2014      C2233   1.471       .  S
O2015     Zr2024   2.442       .  S
O2015      C2017   1.288       .  A
O2016      C2017   1.287       .  A
C2017      C2133   1.472       .  S
O2018      C2020   1.288       .  A
O2019      C2020   1.286       .  A
C2020      C2164   1.477       .  S
Zr2021     O2022   2.436       .  S
Zr2021     O2023   2.435       .  S
O2022      H2042   0.990       .  S
O2022      H2047   0.990       .  S
O2023      H2043   0.990       .  S
Zr2024     O2025   2.434       .  S
Zr2024     O2026   2.435       .  S
Zr2024     O2029   2.370   1_556  S
O2026      H2040   0.990       .  S
O2026      H2050   0.990       .  S
Zr2027     O2030   2.378       .  S
Zr2027     O2032   2.384   1_554  S
Zr2028     O2031   2.385   1_455  S
O2032      H2036   0.967       .  S
O2033      H2038   0.966       .  S
O2051     Zr2063   2.436       .  S
O2051      C2053   1.287       .  A
O2052     Zr2089   2.429       .  S
O2052      C2053   1.288       .  A
C2053      C2204   1.475       .  S
O2054     Zr2066   2.447       .  S
O2054      C2056   1.288       .  A
O2055     Zr2090   2.422       .  S
O2055      C2056   1.287       .  A
C2056      C2173   1.482       .  S
O2057     Zr2066   2.439       .  S
O2057      C2059   1.288       .  A
O2058     Zr2089   2.420       .  S
O2058      C2059   1.286       .  A
C2059      C2264   1.479       .  S
O2060     Zr2063   2.438       .  S
O2060      C2062   1.288       .  A
O2061     Zr2090   2.426       .  S
O2061      C2062   1.286       .  A
C2062      C2224   1.486       .  S
Zr2063     O2064   2.435       .  S
Zr2063     O2065   2.433       .  S
Zr2063     O2069   2.368       .  S
Zr2063     O2070   2.372       .  S
Zr2063     O2093   2.370       .  S
Zr2063     O2095   2.375       .  S
O2064      H2107   0.990       .  S
O2065      H2106   0.991       .  S
O2065      H2110   0.990       .  S
Zr2066     O2067   2.436       .  S
Zr2066     O2068   2.434       .  S
Zr2066     O2070   2.371       .  S
Zr2066     O2069   2.370       .  S
Zr2066     O2094   2.370       .  S
Zr2066     O2096   2.371       .  S
O2067      H2108   0.990       .  S
O2067      H2111   0.990       .  S
O2068      H2101   0.990       .  S
O2069     Zr2089   2.382       .  S
O2070     Zr2090   2.384       .  S
O2070      H2097   0.966       .  S
O2071     Zr2083   2.441       .  S
O2071      C2073   1.288       .  A
O2072     Zr2090   2.427       .  S
O2072      C2073   1.286       .  A
C2073      C2144   1.487       .  S
O2074     Zr2086   2.439       .  S
O2074      C2076   1.287       .  A
O2075     Zr2089   2.429       .  S
O2075      C2076   1.288       .  A
C2076      C2153   1.482       .  S
O2077     Zr2086   2.441       .  S
O2077      C2079   1.287       .  A
O2078     Zr2090   2.420       .  S
O2078      C2079   1.285       .  A
C2079      C2124   1.465       .  S
O2080     Zr2083   2.443       .  S
O2080      C2082   1.289       .  A
O2081     Zr2089   2.430       .  S
O2081      C2082   1.286       .  A
C2082      C2244   1.499       .  S
Zr2083     O2084   2.437       .  S
Zr2083     O2085   2.435       .  S
Zr2083     O2091   2.366       .  S
Zr2083     O2092   2.371       .  S
Zr2083     O2095   2.371       .  S
Zr2083     O2093   2.374       .  S
O2084      H2104   0.990       .  S
O2084      H2109   0.990       .  S
O2085      H2105   0.990       .  S
Zr2086     O2087   2.433       .  S
Zr2086     O2088   2.433       .  S
Zr2086     O2092   2.373       .  S
Zr2086     O2091   2.367       .  S
Zr2086     O2096   2.370       .  S
Zr2086     O2094   2.370       .  S
O2087      H2103   0.990       .  S
O2088      H2102   0.990       .  S
O2088      H2112   0.990       .  S
Zr2089     O2092   2.377       .  S
Zr2089     O2094   2.388       .  S
Zr2089     O2095   2.385       .  S
Zr2090     O2091   2.384       .  S
Zr2090     O2093   2.381       .  S
Zr2090     O2096   2.383       .  S
O2091      H2099   0.963       .  S
O2094      H2098   0.966       .  S
O2095      H2100   0.966       .  S
C2113      C2114   1.415       .  A
C2113      C2118   1.406       .  A
C2114      C2115   1.396       .  A
C2114     Br2130   1.919       .  S
C2115      C2116   1.400       .  A
C2115      H2119   1.084       .  S
C2116      C2120   1.473       .  S
C2116      C2117   1.406       .  A
C2117      C2118   1.396       .  A
C2117     Br2129   1.918       .  S
C2118      H2121   1.084       .  S
C2120      C2122   1.401       .  A
C2120      C2126   1.409       .  A
C2122      C2123   1.396       .  A
C2122      H2127   1.084       .  S
C2123      C2124   1.408       .  A
C2123     Br2131   1.920       .  S
C2124      C2125   1.401       .  A
C2125      C2126   1.399       .  A
C2125      H2128   1.084       .  S
C2126     Br2132   1.920       .  S
C2133      C2134   1.411       .  A
C2133      C2138   1.403       .  A
C2134      C2135   1.398       .  A
C2134     Br2150   1.919       .  S
C2135      C2136   1.400       .  A
C2135      H2139   1.084       .  S
C2136      C2140   1.475       .  S
C2136      C2137   1.408       .  A
C2137      C2138   1.400       .  A
C2137     Br2149   1.917       .  S
C2138      H2141   1.084       .  S
C2140      C2142   1.400       .  A
C2140      C2146   1.404       .  A
C2142      C2143   1.400       .  A
C2142      H2147   1.084       .  S
C2143      C2144   1.418       .  A
C2143     Br2151   1.920       .  S
C2144      C2145   1.409       .  A
C2145      C2146   1.397       .  A
C2145      H2148   1.083       .  S
C2146     Br2152   1.918       .  S
C2153      C2154   1.416       .  A
C2153      C2158   1.407       .  A
C2154      C2155   1.400       .  A
C2154     Br2170   1.922       .  S
C2155      C2156   1.401       .  A
C2155      H2159   1.084       .  S
C2156      C2160   1.477       .  S
C2156      C2157   1.407       .  A
C2157      C2158   1.399       .  A
C2157     Br2169   1.920       .  S
C2158      H2161   1.083       .  S
C2160      C2162   1.403       .  A
C2160      C2166   1.406       .  A
C2162      C2163   1.402       .  A
C2162      H2167   1.083       .  S
C2163      C2164   1.412       .  A
C2163     Br2171   1.920       .  S
C2164      C2165   1.405       .  A
C2165      C2166   1.396       .  A
C2165      H2168   1.084       .  S
C2166     Br2172   1.918       .  S
C2173      C2174   1.415       .  A
C2173      C2178   1.407       .  A
C2174      C2175   1.401       .  A
C2174     Br2190   1.921       .  S
C2175      C2176   1.401       .  A
C2175      H2179   1.084       .  S
C2176      C2180   1.474       .  S
C2176      C2177   1.404       .  A
C2177      C2178   1.398       .  A
C2177     Br2189   1.919       .  S
C2178      H2181   1.084       .  S
C2180      C2182   1.404       .  A
C2180      C2186   1.405       .  A
C2182      C2183   1.401       .  A
C2182      H2187   1.083       .  S
C2183      C2184   1.411       .  A
C2183     Br2191   1.921       .  S
C2184      C2185   1.405       .  A
C2185      C2186   1.395       .  A
C2185      H2188   1.084       .  S
C2186     Br2192   1.919       .  S
C2193      C2194   1.421       .  A
C2193      C2198   1.411       .  A
C2194      C2195   1.399       .  A
C2194     Br2210   1.923       .  S
C2195      C2196   1.399       .  A
C2195      H2199   1.084       .  S
C2196      C2200   1.476       .  S
C2196      C2197   1.404       .  A
C2197      C2198   1.397       .  A
C2197     Br2209   1.919       .  S
C2198      H2201   1.083       .  S
C2200      C2202   1.402       .  A
C2200      C2206   1.407       .  A
C2202      C2203   1.399       .  A
C2202      H2207   1.084       .  S
C2203      C2204   1.409       .  A
C2203     Br2211   1.916       .  S
C2204      C2205   1.405       .  A
C2205      C2206   1.398       .  A
C2205      H2208   1.084       .  S
C2206     Br2212   1.920       .  S
C2213      C2214   1.411       .  A
C2213      C2218   1.405       .  A
C2214      C2215   1.401       .  A
C2214     Br2230   1.918       .  S
C2215      C2216   1.402       .  A
C2215      H2219   1.084       .  S
C2216      C2220   1.478       .  S
C2216      C2217   1.408       .  A
C2217      C2218   1.399       .  A
C2217     Br2229   1.919       .  S
C2218      H2221   1.084       .  S
C2220      C2222   1.402       .  A
C2220      C2226   1.404       .  A
C2222      C2223   1.403       .  A
C2222      H2227   1.083       .  S
C2223      C2224   1.417       .  A
C2223     Br2231   1.923       .  S
C2224      C2225   1.408       .  A
C2225      C2226   1.396       .  A
C2225      H2228   1.083       .  S
C2226     Br2232   1.918       .  S
C2233      C2234   1.409       .  A
C2233      C2238   1.401       .  A
C2234      C2235   1.402       .  A
C2234     Br2250   1.922       .  S
C2235      C2236   1.405       .  A
C2235      H2239   1.083       .  S
C2236      C2240   1.482       .  S
C2236      C2237   1.409       .  A
C2237      C2238   1.399       .  A
C2237     Br2249   1.919       .  S
C2238      H2241   1.084       .  S
C2240      C2242   1.401       .  A
C2240      C2246   1.404       .  A
C2242      C2243   1.402       .  A
C2242      H2247   1.084       .  S
C2243      C2244   1.422       .  A
C2243     Br2251   1.924       .  S
C2244      C2245   1.413       .  A
C2245      C2246   1.399       .  A
C2245      H2248   1.083       .  S
C2246     Br2252   1.920       .  S
C2253      C2254   1.407       .  A
C2253      C2258   1.402       .  A
C2254      C2255   1.397       .  A
C2254     Br2270   1.920       .  S
C2255      C2256   1.402       .  A
C2255      H2259   1.083       .  S
C2256      C2260   1.471       .  S
C2256      C2257   1.407       .  A
C2257      C2258   1.397       .  A
C2257     Br2269   1.920       .  S
C2258      H2261   1.083       .  S
C2260      C2262   1.401       .  A
C2260      C2266   1.403       .  A
C2262      C2263   1.400       .  A
C2262      H2267   1.084       .  S
C2263      C2264   1.414       .  A
C2263     Br2271   1.921       .  S
C2264      C2265   1.407       .  A
C2265      C2266   1.395       .  A
C2265      H2268   1.083       .  S
C2266     Br2272   1.920       .  S
