geometry optimzed in LAMMPS
_audit_creation_date              2020-11-30 
_audit_creation_method            'lammps2cif' 
_symmetry_space_group_name_H-M    'P1' 
_symmetry_Int_Tables_number       1 
_symmetry_cell_setting            triclinic 
loop_ 
_symmetry_equiv_pos_as_xyz 
  x,y,z 
_cell_length_a                    49.14282901 
_cell_length_b                    48.39012375157563 
_cell_length_c                    27.943303281264008 
_cell_angle_alpha                 89.57284930083229 
_cell_angle_beta                  89.79088596868756 
_cell_angle_gamma                 90.56769482271484 
loop_ 
_atom_site_label 
_atom_site_type_symbol 
_atom_site_fract_x 
_atom_site_fract_y 
_atom_site_fract_z 
_atom_site_charge 
Zr1        Zr  0.43026490  0.55013719  0.12886247     2.17500
O2          O  0.43335653  0.51733763  0.06338392    -0.51200
O3          O  0.44838421  0.51731528  0.18606616    -0.74400
O4          O  0.47560787  0.54728507  0.09710312    -0.81200
O5          O  0.35824355  0.54232396  0.10730325    -0.83000
O6          O  0.49083297  0.59129862  0.08350436    -0.78600
O7          O  0.39314302  0.51723919  0.13289753    -0.90200
O8          O  0.45299147  0.54224461  0.25399908    -0.76200
O9          O  0.45683355  0.57986210  0.17814814    -0.85700
O10         O  0.40118481  0.55824569  0.19556895    -0.85400
O11         O  0.43961451  0.59083683  0.08095952    -0.72100
O12         O  0.39057860  0.57150224  0.09635152    -0.84300
Zr13       Zr  0.39689613  0.65155791  0.16404856     2.26400
Zr14       Zr  0.46451066  0.62174127  0.13290452     2.06300
Zr15       Zr  0.36175629  0.58086939  0.16323156     2.10000
Zr16       Zr  0.42790904  0.58735968  0.24442441     1.78800
O17         O  0.31447871  0.56732515  0.14969694    -0.93100
O18         O  0.46857554  0.59986808  0.28933185    -0.40900
O19         O  0.38782943  0.61097227  0.21351456    -0.77500
O20         O  0.43623232  0.63031462  0.20038132    -0.96200
O21         O  0.42549361  0.64241444  0.09781529    -0.89500
O22         O  0.37144940  0.62089180  0.11498283    -0.92300
C23         C  0.45662549  0.51989133  0.22920643     1.01400
C24         C  0.37312140  0.52071906  0.10506086     1.14300
C25         C  0.49151045  0.56511833  0.07750772     1.05100
O26         O  0.49601035  0.62187206  0.19989701    -0.94500
O27         O  0.46594935  0.67252395  0.12469488    -0.90200
O28         O  0.42914389  0.68982963  0.16288884    -0.83400
C29         C  0.45216891  0.69273562  0.14172101     1.11800
O30         O  0.40929387  0.57880363  0.98466411    -0.96500
Zr31       Zr  0.40025235  0.61112472  0.04919394     1.88900
O32         O  0.37871072  0.67963468  0.09632418    -0.73100
O33         O  0.50524879  0.64402432  0.09962184    -0.52400
O34         O  0.42756196  0.63230520  0.98564871    -0.97100
O35         O  0.35693341  0.59825662  0.01273401    -0.54300
O36         O  0.38157258  0.65455221  0.02798243    -0.73600
C37         C  0.37496284  0.67605002  0.05092070     0.98700
O38         O  0.39122313  0.68262142  0.23172701    -0.62500
O39         O  0.34839631  0.55776973  0.23761383    -0.57300
O40         O  0.34979818  0.65872152  0.18123890    -0.93900
O41         O  0.32788923  0.61726878  0.17419094    -0.92400
O42         O  0.40051486  0.56170478  0.30276250    -0.92700
O43         O  0.41789323  0.61444045  0.31537192    -0.91500
C44         C  0.32842963  0.64355186  0.18069177     1.17600
H45         H  0.39657893  0.54127911  0.21228308     0.33500
H46         H  0.44506842  0.64348166  0.22116174     0.44300
H47         H  0.35508104  0.62904344  0.10245868     0.37900
H48         H  0.44853608  0.58599725  0.05148042     0.34400
H49         H  0.46605111  0.59095661  0.32107661     0.26100
H50         H  0.52066690  0.63182685  0.10763544     0.32100
H51         H  0.44609088  0.62492310  0.99029937     0.38000
H52         H  0.41381002  0.55470863  0.32636353     0.32400
H53         H  0.33066190  0.56597179  0.24614908     0.31300
H54         H  0.31314055  0.54760961  0.15921605     0.33000
H55         H  0.34707217  0.61578455  0.00786924     0.32000
H56         H  0.41445685  0.63329540  0.30293503     0.36000
H57         H  0.37833779  0.67300373  0.25366528     0.28700
H58         H  0.44925092  0.50563942  0.07059289     0.32900
H59         H  0.39936259  0.58609707  0.95659580     0.35800
H60         H  0.34391756  0.53855478  0.22831292     0.28400
H61         H  0.40878912  0.68199615  0.24894189     0.41300
H62         H  0.50017368  0.64166562  0.20528986     0.31300
H63         H  0.48336662  0.58921277  0.27426638     0.38900
H64         H  0.34664384  0.58858277  0.03848995     0.30800
H65         H  0.50332388  0.64284909  0.06442371     0.30900
H66         H  0.43875548  0.52849186  0.03498063     0.31100
Zr67       Zr  0.46008166  0.91413358  0.17333492     2.17500
O68         O  0.45651676  0.94413599  0.24272745    -0.51200
O69         O  0.48801659  0.94676037  0.13049835    -0.74400
O70         O  0.50172528  0.91151544  0.21805031    -0.81200
O71         O  0.38855165  0.93132358  0.15452586    -0.83000
O72         O  0.50783903  0.86574630  0.23427231    -0.78600
O73         O  0.42968337  0.95184791  0.15620261    -0.90200
O74         O  0.49572471  0.92752040  0.05806416    -0.76200
O75         O  0.48927942  0.88232174  0.13440066    -0.85700
O76         O  0.44184907  0.91105090  0.09481412    -0.85400
O77         O  0.45768143  0.87205011  0.21945248    -0.72100
O78         O  0.41446044  0.89773832  0.18319973    -0.84300
Zr79       Zr  0.42135003  0.81890057  0.11206953     2.26400
Zr80       Zr  0.48455226  0.83861897  0.17567673     2.06300
Zr81       Zr  0.39666950  0.89217713  0.10381344     2.10000
Zr82       Zr  0.47166814  0.88056043  0.05607841     1.78800
O83         O  0.35317239  0.91481409  0.09039408    -0.93100
O84         O  0.51940266  0.86999113  0.04194559    -0.40900
O85         O  0.42578230  0.86061172  0.06378847    -0.77500
O86         O  0.46712462  0.83575763  0.09662722    -0.96200
O87         O  0.43928483  0.82317078  0.19009521    -0.89500
O88         O  0.39379667  0.85136390  0.15258513    -0.92300
C89         C  0.49837023  0.94768694  0.08854871     1.01400
C90         C  0.40464995  0.95070938  0.16787136     1.14300
C91         C  0.51126163  0.89148756  0.24264579     1.05100
O92         O  0.52450943  0.83160093  0.12564820    -0.94500
O93         O  0.47382889  0.78850102  0.18314606    -0.90200
O94         O  0.44862688  0.77804858  0.11836652    -0.83400
C95         C  0.46250519  0.77088983  0.15483448     1.11800
O96         O  0.40553094  0.88682132  0.29821935    -0.96500
Zr97       Zr  0.41248114  0.85679292  0.22978747     1.88900
O98         O  0.39572887  0.78905132  0.17009872    -0.73100
O99         O  0.51402052  0.81024838  0.22568829    -0.52400
O100        O  0.43283911  0.83978179  0.30356556    -0.97100
O101        O  0.36531223  0.86809780  0.24824091    -0.54300
O102        O  0.39225570  0.81248201  0.24012466    -0.73600
C103        C  0.38791352  0.79148206  0.21415894     0.98700
O104        O  0.41800007  0.79251254  0.03829135    -0.62500
O105        O  0.40157539  0.91352305  0.02493265    -0.57300
O106        O  0.37596256  0.81652058  0.08203624    -0.93900
O107        O  0.35952459  0.86031074  0.08273332    -0.92400
O108        O  0.45538445  0.90256499  0.98312092    -0.92700
O109        O  0.47793760  0.85372326  0.98348156    -0.91500
C110        C  0.35699144  0.83406400  0.07713407     1.17600
H111        H  0.44172341  0.92877105  0.07866631     0.33500
H112        H  0.47706451  0.82201369  0.07899970     0.44300
H113        H  0.37551674  0.84478701  0.15864141     0.37900
H114        H  0.46309591  0.87523866  0.25209930     0.34400
H115        H  0.52401262  0.87949868  0.01143788     0.26100
H116        H  0.53239689  0.81873893  0.22351163     0.32100
H117        H  0.44573056  0.82541733  0.29309152     0.38000
H118        H  0.47147200  0.91250343  0.96990582     0.32400
H119        H  0.38878972  0.90320835  0.00421032     0.31300
H120        H  0.34860796  0.91167994  0.05636893     0.33000
H121        H  0.35536538  0.85022060  0.24959645     0.32000
H122        H  0.47408255  0.83435180  0.99315925     0.36000
H123        H  0.41015272  0.80546075  0.01457015     0.28700
H124        H  0.47267311  0.95649370  0.24083441     0.32900
H125        H  0.41854371  0.90232386  0.29324615     0.35800
H126        H  0.39358131  0.93212871  0.02806092     0.28400
H127        H  0.43706396  0.79034062  0.02747889     0.41300
H128        H  0.53933094  0.84172035  0.14210663     0.31300
H129        H  0.52948523  0.88058449  0.06646682     0.38900
H130        H  0.35839246  0.87741285  0.21912353     0.30800
H131        H  0.50798666  0.81348558  0.25901712     0.30900
H132        H  0.45989248  0.93201846  0.27073311     0.31100
Zr133      Zr  0.05795970  0.94435912  0.63769355     2.17500
O134        O  0.05526362  0.97830273  0.57344984    -0.51200
O135        O  0.02412987  0.96907406  0.68283013    -0.74400
O136        O  0.02135875  0.93480806  0.58285185    -0.81200
O137        O  0.12653791  0.97525637  0.65686940    -0.83000
O138        O  0.01535674  0.88817989  0.57779116    -0.78600
O139        O  0.08256859  0.98601792  0.65884234    -0.90200
O140        O  0.02697363  0.95340301  0.75934848    -0.76200
O141        O  0.03404284  0.90801175  0.67791473    -0.85700
O142        O  0.07691170  0.94441770  0.71600695    -0.85400
O143        O  0.06756286  0.90344814  0.59236341    -0.72100
O144        O  0.10548268  0.93585568  0.62669459    -0.84300
Zr145      Zr  0.11099953  0.85650358  0.69805727     2.26400
Zr146      Zr  0.04483523  0.86639175  0.63520824     2.06300
Zr147      Zr  0.12414793  0.93417028  0.70582301     2.10000
Zr148      Zr  0.05313229  0.90858833  0.75577151     1.78800
O149        O  0.16786154  0.95822687  0.70031743    -0.93100
O150        O  0.00647081  0.89352456  0.77177501    -0.40900
O151        O  0.10082732  0.89688558  0.74557011    -0.77500
O152        O  0.06346666  0.86567255  0.71390887    -0.96200
O153        O  0.09194077  0.85827409  0.62097917    -0.89500
O154        O  0.13407198  0.89386422  0.65941555    -0.92300
C155        C  0.01839146  0.97091762  0.72739062     1.01400
C156        C  0.10662069  0.99016385  0.64358493     1.14300
C157        C  0.01052818  0.91309186  0.56486655     1.05100
O158        O  0.00091771  0.85514099  0.67133873    -0.94500
O159        O  0.04945747  0.81653579  0.65116040    -0.90200
O160        O  0.09189842  0.81112076  0.68158693    -0.83400
C161        C  0.06930240  0.80146119  0.66564969     1.11800
O162        O  0.11143178  0.92433835  0.51004242    -0.96500
Zr163      Zr  0.11474321  0.89563286  0.58168360     1.88900
O164        O  0.14491786  0.83395098  0.64442288    -0.73100
O165        O  0.03664322  0.83596115  0.56747589    -0.52400
O166        O  0.10079817  0.87018857  0.51084892    -0.97100
O167        O  0.15718971  0.91967571  0.56183204    -0.54300
O168        O  0.14598565  0.85809544  0.57438789    -0.73600
C169        C  0.15372251  0.83827206  0.60119921     0.98700
O170        O  0.11432344  0.82659715  0.76844500    -0.62500
O171        O  0.11818538  0.96023929  0.77939589    -0.57300
O172        O  0.15197686  0.86509994  0.74126131    -0.93900
O173        O  0.16107127  0.91122944  0.74623960    -0.92400
O174        O  0.07205891  0.92825063  0.82851798    -0.92700
O175        O  0.04810416  0.88104780  0.82871081    -0.91500
C176        C  0.16624098  0.88582477  0.75456099     1.17600
H177        H  0.07461227  0.96166233  0.73262483     0.33500
H178        H  0.05563118  0.85030919  0.73161470     0.44300
H179        H  0.15343698  0.89087369  0.65712568     0.37900
H180        H  0.06115421  0.90517284  0.55992353     0.34400
H181        H  0.99530518  0.90333138  0.74774116     0.26100
H182        H  0.01664199  0.83341365  0.56621618     0.32100
H183        H  0.09494590  0.85179987  0.52304842     0.38000
H184        H  0.06014335  0.94400777  0.83612434     0.32400
H185        H  0.12976348  0.95073668  0.80317072     0.31300
H186        H  0.16879108  0.97013290  0.72892196     0.33000
H187        H  0.17049610  0.90498197  0.55502625     0.32000
H188        H  0.04677729  0.86166016  0.81782972     0.36000
H189        H  0.11740321  0.83930724  0.79555483     0.28700
H190        H  0.03663357  0.98572653  0.57620465     0.32900
H191        H  0.09695019  0.93774053  0.51743867     0.35800
H192        H  0.12740425  0.97822065  0.77342184     0.28400
H193        H  0.09561109  0.81944244  0.77387419     0.41300
H194        H  0.98730462  0.86284446  0.64901786     0.31300
H195        H  0.00579837  0.87393180  0.76188416     0.38900
H196        H  0.16338748  0.92784052  0.59234179     0.30800
H197        H  0.04128599  0.84710131  0.53866601     0.30900
H198        H  0.05539060  0.96769564  0.54328504     0.31100
Zr199      Zr  0.04013597  0.58046659  0.67494800     2.17500
O200        O  0.04821848  0.54836051  0.74094352    -0.51200
O201        O  0.00456744  0.55126717  0.64243029    -0.74400
O202        O  0.00831181  0.58688760  0.73914115    -0.81200
O203        O  0.10540887  0.55654525  0.63173951    -0.83000
O204        O  0.00580527  0.63270110  0.75664509    -0.78600
O205        O  0.06365630  0.54020150  0.64671589    -0.90200
O206        O  0.99078213  0.57230515  0.57391778    -0.76200
O207        O  0.00991479  0.61582369  0.64986646    -0.85700
O208        O  0.04687656  0.58270158  0.59065660    -0.85400
O209        O  0.05423340  0.62141587  0.71734742    -0.72100
O210        O  0.08712606  0.59231373  0.66423451    -0.84300
Zr211      Zr  0.07864488  0.67222713  0.59645080     2.26400
Zr212      Zr  0.02483363  0.65761751  0.68878297     2.06300
Zr213      Zr  0.09378888  0.59552581  0.57970298     2.10000
Zr214      Zr  0.01667589  0.61754342  0.56588308     1.78800
O215        O  0.13858085  0.57702528  0.56181749    -0.93100
O216        O  0.96889928  0.63043149  0.57011607    -0.40900
O217        O  0.06382164  0.63141750  0.55388158    -0.77500
O218        O  0.03084359  0.66060774  0.60414610    -0.96200
O219        O  0.07190645  0.66848736  0.67988391    -0.89500
O220        O  0.10825552  0.63633819  0.62108959    -0.92300
C221        C  0.98996841  0.55195155  0.60460588     1.01400
C222        C  0.08925343  0.53888748  0.65169739     1.14300
C223        C  0.00126211  0.60707855  0.76555711     1.05100
O224        O  0.97776601  0.66589145  0.66651065    -0.94500
O225        O  0.03016564  0.70831632  0.67937177    -0.90200
O226        O  0.06454305  0.71649025  0.62652000    -0.83400
C227        C  0.04647545  0.72469506  0.65620779     1.11800
O228        O  0.10884362  0.60140006  0.77278340    -0.96500
Zr229      Zr  0.10098824  0.63245731  0.70528490     1.88900
O230        O  0.11952408  0.69526203  0.63059317    -0.73100
O231        O  0.01829744  0.68686622  0.75862914    -0.52400
O232        O  0.09816783  0.65661002  0.78126206    -0.97100
O233        O  0.14691983  0.61392353  0.70086440    -0.54300
O234        O  0.12947594  0.67243899  0.69961580    -0.73600
C235        C  0.13345371  0.69179818  0.66927457     0.98700
O236        O  0.06805190  0.70504680  0.53253623    -0.62500
O237        O  0.08060788  0.56571218  0.51357828    -0.57300
O238        O  0.10920508  0.66789526  0.53054884    -0.93900
O239        O  0.11988763  0.62255360  0.52112698    -0.92400
O240        O  0.02462730  0.59881492  0.48649793    -0.92700
O241        O  0.00227644  0.64792496  0.50102872    -0.91500
C242        C  0.12170561  0.64828991  0.51001399     1.17600
H243        H  0.04276986  0.56533981  0.57536581     0.33500
H244        H  0.02011252  0.67565802  0.59176301     0.44300
H245        H  0.12703894  0.64072969  0.61378572     0.37900
H246        H  0.05258425  0.61848047  0.75142992     0.34400
H247        H  0.96025507  0.62113002  0.54253393     0.26100
H248        H  0.99896762  0.68452059  0.76809396     0.32100
H249        H  0.08183602  0.66831049  0.77834365     0.38000
H250        H  0.01284046  0.58214646  0.48491360     0.32400
H251        H  0.09567043  0.56754804  0.49010861     0.31300
H252        H  0.13504262  0.55875792  0.54724855     0.33000
H253        H  0.15730517  0.62690951  0.68003785     0.32000
H254        H  0.01478006  0.66406052  0.50265450     0.36000
H255        H  0.06607870  0.69369912  0.50339408     0.28700
H256        H  0.03035735  0.53964553  0.74828561     0.32900
H257        H  0.12540832  0.60861284  0.78866225     0.35800
H258        H  0.08225752  0.54669533  0.52650823     0.28400
H259        H  0.04929912  0.71125861  0.53931884     0.41300
H260        H  0.97770619  0.68519082  0.65450912     0.31300
H261        H  0.96159673  0.62038460  0.59844082     0.38900
H262        H  0.14503776  0.59695899  0.68152425     0.30800
H263        H  0.02882129  0.67813030  0.78473480     0.30900
H264        H  0.05238767  0.56008620  0.76891861     0.31100
Zr265      Zr  0.24103724  0.77259226  0.78665365     2.17500
O266        O  0.23747439  0.79942366  0.71262872    -0.51200
O267        O  0.20691627  0.74890851  0.73856252    -0.74400
O268        O  0.27728239  0.76243122  0.73086929    -0.81200
O269        O  0.19951564  0.82581985  0.85716750    -0.83000
O270        O  0.30386146  0.72838127  0.76127372    -0.78600
O271        O  0.22345898  0.81959426  0.78818471    -0.90200
O272        O  0.19483299  0.70990600  0.77931922    -0.76200
O273        O  0.25398008  0.72669154  0.80699158    -0.85700
O274        O  0.20466017  0.75564604  0.83647109    -0.85400
O275        O  0.28516495  0.77612274  0.82388745    -0.72100
O276        O  0.23974214  0.79999519  0.85610171    -0.84300
Zr277      Zr  0.25978934  0.74337825  0.96516245     2.26400
Zr278      Zr  0.29688374  0.72992243  0.84822614     2.06300
Zr279      Zr  0.20383209  0.78421679  0.90642419     2.10000
Zr280      Zr  0.21813224  0.70985971  0.85687594     1.78800
O281        O  0.18027542  0.82258915  0.94377176    -0.93100
O282        O  0.23279213  0.66689430  0.82022205    -0.40900
O283        O  0.21632458  0.73815007  0.92737627    -0.77500
O284        O  0.26116876  0.71201732  0.89869695    -0.96200
O285        O  0.29484040  0.76054207  0.91410384    -0.89500
O286        O  0.24691577  0.78912745  0.94465851    -0.92300
C287        C  0.19328243  0.72635378  0.74306469     1.01400
C288        C  0.20878487  0.83412165  0.81641658     1.14300
C289        C  0.29546620  0.74383983  0.72676941     1.05100
O290        O  0.30487835  0.68088308  0.83615624    -0.94500
O291        O  0.32593572  0.71660741  0.91726793    -0.90200
O292        O  0.30229723  0.72302573  0.98654254    -0.83400
C293        C  0.32352689  0.71598037  0.96343816     1.11800
O294        O  0.29201350  0.84104439  0.83162076    -0.96500
Zr295      Zr  0.28215723  0.80576488  0.89197871     1.88900
O296        O  0.28476645  0.77490896  0.01728018    -0.73100
O297        O  0.34409867  0.74278636  0.83163135    -0.52400
O298        O  0.33093089  0.81379282  0.88411253    -0.97100
O299        O  0.26497840  0.85070971  0.91598054    -0.54300
O300        O  0.29963026  0.81072397  0.97044248    -0.73600
C301        C  0.29777795  0.79772406  0.01003999     0.98700
O302        O  0.25250431  0.70302067  0.01663364    -0.62500
O303        O  0.15745750  0.77000389  0.88668757    -0.57300
O304        O  0.22648543  0.75241542  0.02601795    -0.93900
O305        O  0.19335625  0.77856840  0.99230015    -0.92400
O306        O  0.17111316  0.70310107  0.88255866    -0.92700
O307        O  0.20792241  0.66837013  0.90377995    -0.91500
C308        C  0.20431483  0.76597928  0.02802175     1.17600
H309        H  0.18728681  0.75637074  0.82059564     0.33500
H310        H  0.26597737  0.69378350  0.90991734     0.44300
H311        H  0.24510120  0.80066743  0.97251994     0.37900
H312        H  0.29870561  0.78372093  0.80223749     0.34400
H313        H  0.21619603  0.65910300  0.80526586     0.26100
H314        H  0.35246499  0.72582916  0.81884331     0.32100
H315        H  0.33844387  0.79547113  0.87623129     0.38000
H316        H  0.16000718  0.70921782  0.85503889     0.32400
H317        H  0.14764162  0.76948131  0.91767973     0.31300
H318        H  0.16080049  0.81715818  0.94426701     0.33000
H319        H  0.26079525  0.84878891  0.95053775     0.32000
H320        H  0.22205917  0.66792083  0.92890994     0.36000
H321        H  0.23305155  0.69811489  0.01241388     0.28700
H322        H  0.23762671  0.78583830  0.68630069     0.32900
H323        H  0.27498842  0.84263031  0.81301077     0.35800
H324        H  0.14979811  0.78606198  0.86936540     0.28400
H325        H  0.26233008  0.68781134  0.00081782     0.41300
H326        H  0.32273893  0.68017627  0.81972230     0.31300
H327        H  0.24442736  0.67266107  0.79285458     0.38900
H328        H  0.24693833  0.85209581  0.90054443     0.30800
H329        H  0.34348724  0.75570323  0.80402769     0.30900
H330        H  0.25496142  0.80964414  0.70943652     0.31100
Zr331      Zr  0.22939902  0.73395831  0.46685272     2.17500
O332        O  0.21647002  0.70664652  0.53724385    -0.51200
O333        O  0.20725423  0.76867588  0.51606732    -0.74400
O334        O  0.26630367  0.73054203  0.52413568    -0.81200
O335        O  0.16824500  0.70518716  0.39471862    -0.83000
O336        O  0.30610392  0.74773684  0.49382489    -0.78600
O337        O  0.19210872  0.70041157  0.46403754    -0.90200
O338        O  0.21228353  0.80975564  0.47722257    -0.76200
O339        O  0.26026672  0.77082174  0.44884375    -0.85700
O340        O  0.20368398  0.76411670  0.41643552    -0.85400
O341        O  0.26870444  0.71333357  0.43025837    -0.72100
O342        O  0.21784864  0.70923932  0.39678779    -0.84300
Zr343      Zr  0.26113684  0.75415850  0.28988898     2.26400
Zr344      Zr  0.29863036  0.75113744  0.40760150     2.06300
Zr345      Zr  0.19274817  0.73885072  0.34507030     2.10000
Zr346      Zr  0.23476346  0.80102495  0.39951017     1.78800
O347        O  0.15785591  0.71137750  0.30534263    -0.93100
O348        O  0.26625281  0.83264990  0.43897432    -0.40900
O349        O  0.22309529  0.77631615  0.32735391    -0.77500
O350        O  0.27360437  0.78210864  0.35752941    -0.96200
O351        O  0.28564925  0.72400615  0.34070887    -0.89500
O352        O  0.23067231  0.71718685  0.30784411    -0.92300
C353        C  0.20383818  0.79484835  0.51284611     1.01400
C354        C  0.17252859  0.69396067  0.43574971     1.14300
C355        C  0.29127380  0.73810492  0.52821399     1.05100
O356        O  0.32441081  0.79321665  0.42403739    -0.94500
O357        O  0.33186158  0.75573274  0.34061471    -0.90200
O358        O  0.30844156  0.75834266  0.27063756    -0.83400
C359        C  0.33047489  0.75791535  0.29450415     1.11800
O360        O  0.24719387  0.64827100  0.41447671    -0.96500
Zr361      Zr  0.25515192  0.68758278  0.36118283     1.88900
O362        O  0.27274459  0.71533539  0.23812774    -0.73100
O363        O  0.33675729  0.72033628  0.42182338    -0.52400
O364        O  0.29691988  0.66231623  0.37626850    -0.97100
O365        O  0.22098583  0.65395088  0.33576691    -0.54300
O366        O  0.27120344  0.67606588  0.28341803    -0.73600
C367        C  0.27581806  0.68921339  0.24457077     0.98700
O368        O  0.27219606  0.79313496  0.23699401    -0.62500
O369        O  0.15691256  0.77235601  0.35858529    -0.57300
O370        O  0.22810270  0.76023558  0.22811727    -0.93900
O371        O  0.18654701  0.74939838  0.25917551    -0.92400
O372        O  0.19551981  0.82963125  0.38163391    -0.92700
O373        O  0.24329750  0.84178680  0.34981262    -0.91500
C374        C  0.20234242  0.75726961  0.22466772     1.17600
H375        H  0.18718088  0.77017413  0.43176956     0.33500
H376        H  0.28542564  0.79702864  0.34694541     0.44300
H377        H  0.22485617  0.70752306  0.27947599     0.37900
H378        H  0.27767004  0.70094928  0.45226445     0.34400
H379        H  0.27002742  0.82402140  0.47046588     0.26100
H380        H  0.34990300  0.73134095  0.44074369     0.32100
H381        H  0.31129877  0.67304399  0.35929157     0.38000
H382        H  0.18018373  0.82087477  0.39932808     0.32400
H383        H  0.15072931  0.77761530  0.32612037     0.31300
H384        H  0.14207633  0.72382167  0.30223819     0.33000
H385        H  0.22724313  0.64736804  0.30417362     0.32000
H386        H  0.24061458  0.83532626  0.31660207     0.36000
H387        H  0.25546488  0.80433530  0.23548813     0.28700
H388        H  0.21919209  0.71897966  0.56497106     0.32900
H389        H  0.23755721  0.65611346  0.44235631     0.35800
H390        H  0.14163053  0.76137193  0.37229302     0.28400
H391        H  0.28504552  0.80482771  0.25531632     0.41300
H392        H  0.34368437  0.78745766  0.42364436     0.31300
H393        H  0.28352430  0.83105080  0.42092004     0.38900
H394        H  0.20464261  0.66503388  0.32862743     0.30800
H395        H  0.32974582  0.70605610  0.44436042     0.30900
H396        H  0.23059324  0.69230046  0.54053457     0.31100
Zr397      Zr  0.56409407  0.94616150  0.41954365     2.17500
O398        O  0.54603169  0.96986226  0.34926435    -0.51200
O399        O  0.52295421  0.95745599  0.46137068    -0.74400
O400        O  0.53239881  0.91734074  0.37801011    -0.81200
O401        O  0.61732522  0.99923146  0.41007386    -0.83000
O402        O  0.54049707  0.87169728  0.39319929    -0.78600
O403        O  0.57174964  0.99550288  0.41542916    -0.90200
O404        O  0.52987934  0.94593183  0.53891704    -0.76200
O405        O  0.55706952  0.90854283  0.47350904    -0.85700
O406        O  0.58553701  0.96194036  0.49057746    -0.85400
O407        O  0.58539971  0.90695545  0.38302368    -0.72100
O408        O  0.61065610  0.95514608  0.39953480    -0.84300
Zr409      Zr  0.64872085  0.89364158  0.48556630     2.26400
Zr410      Zr  0.58119510  0.86963794  0.44108373     2.06300
Zr411      Zr  0.63329769  0.96834211  0.47177958     2.10000
Zr412      Zr  0.57726795  0.92493088  0.54428803     1.78800
O413        O  0.65598842  0.01332767  0.46882063    -0.93100
O414        O  0.54920167  0.88872217  0.58090144    -0.40900
O415        O  0.62589471  0.93093715  0.52619152    -0.77500
O416        O  0.60223025  0.88571953  0.51256183    -0.96200
O417        O  0.62613721  0.87994754  0.41548885    -0.89500
O418        O  0.65433055  0.93077076  0.43054152    -0.92300
C419        C  0.51471681  0.95582848  0.50469277     1.01400
C420        C  0.59332260  0.00609208  0.39735513     1.14300
C421        C  0.52878649  0.89147485  0.37098978     1.05100
O422        O  0.54961776  0.84396730  0.49234236    -0.94500
O423        O  0.60875647  0.82923539  0.46741354    -0.90200
O424        O  0.64671862  0.84585533  0.50402006    -0.83400
C425        C  0.63130516  0.82617831  0.49059765     1.11800
O426        O  0.61446122  0.94709432  0.29576434    -0.96500
Zr427      Zr  0.63072939  0.91748389  0.36041663     1.88900
O428        O  0.67236776  0.86528016  0.42310897    -0.73100
O429        O  0.58127594  0.83371615  0.38026369    -0.52400
O430        O  0.61705411  0.88888683  0.29295630    -0.97100
O431        O  0.66846487  0.94387710  0.32526745    -0.54300
O432        O  0.66460566  0.88334373  0.34908404    -0.73600
C433        C  0.67492029  0.86535483  0.37679139     0.98700
O434        O  0.67313931  0.88310494  0.55946923    -0.62500
O435        O  0.62502126  0.99029076  0.54853889    -0.57300
O436        O  0.69086883  0.91845044  0.49895710    -0.93900
O437        O  0.68280767  0.96397812  0.48520439    -0.92400
O438        O  0.57672948  0.96332257  0.60010597    -0.92700
O439        O  0.59412444  0.91336485  0.62371779    -0.91500
C440        C  0.69874136  0.94366490  0.49479168     1.17600
H441        H  0.57738425  0.97871721  0.50214581     0.33500
H442        H  0.60187093  0.87113926  0.53636926     0.44300
H443        H  0.67281004  0.93391855  0.42009962     0.37900
H444        H  0.57722417  0.90212055  0.35289895     0.34400
H445        H  0.53966079  0.89798329  0.60751617     0.26100
H446        H  0.56421823  0.82303440  0.38548774     0.32100
H447        H  0.63255395  0.88994537  0.27024118     0.38000
H448        H  0.56112542  0.95930390  0.62167162     0.32400
H449        H  0.64333660  0.99532828  0.56050937     0.31300
H450        H  0.66815697  0.01257727  0.44053271     0.33000
H451        H  0.68524621  0.93523631  0.33756608     0.32000
H452        H  0.61320499  0.90773701  0.61832050     0.36000
H453        H  0.67297908  0.90048583  0.57797836     0.28700
H454        H  0.52603016  0.96722791  0.35051933     0.32900
H455        H  0.62429274  0.94124012  0.26662242     0.35800
H456        H  0.61647921  0.00816296  0.54044247     0.28400
H457        H  0.66095925  0.87063745  0.57813014     0.41300
H458        H  0.55271624  0.82432862  0.48448909     0.31300
H459        H  0.53473955  0.88499095  0.55717189     0.38900
H460        H  0.66777057  0.96211004  0.34106989     0.30800
H461        H  0.57862892  0.84353911  0.34942870     0.30900
H462        H  0.55219223  0.95898263  0.32148496     0.31100
Zr463      Zr  0.91242198  0.95805170  0.47183492     2.17500
O464        O  0.93882723  0.96932373  0.54279578    -0.51200
O465        O  0.94468923  0.97762859  0.41594966    -0.74400
O466        O  0.95118678  0.92871898  0.46484825    -0.81200
O467        O  0.86711076  0.01054564  0.51689522    -0.83000
O468        O  0.93710223  0.88401123  0.47072796    -0.78600
O469        O  0.91006977  0.00642647  0.48876216    -0.90200
O470        O  0.92578045  0.97088600  0.34313296    -0.76200
O471        O  0.90885848  0.92622191  0.40812467    -0.85700
O472        O  0.88141530  0.98002271  0.41919040    -0.85400
O473        O  0.89735480  0.91548883  0.50821072    -0.72100
O474        O  0.87169634  0.96418413  0.51719108    -0.84300
Zr475      Zr  0.81902634  0.91060771  0.43762076     2.26400
Zr476      Zr  0.89068610  0.88424531  0.44221978     2.06300
Zr477      Zr  0.83934931  0.98364358  0.46297327     2.10000
Zr478      Zr  0.87898718  0.94867666  0.35528629     1.78800
O479        O  0.81734839  0.02277927  0.50105367    -0.93100
O480        O  0.90141886  0.92086738  0.29477592    -0.40900
O481        O  0.83547645  0.95223868  0.39793569    -0.77500
O482        O  0.85963389  0.90611602  0.38874543    -0.96200
O483        O  0.85091167  0.88997455  0.48993999    -0.89500
O484        O  0.82412780  0.94201343  0.50166064    -0.92300
C485        C  0.94574710  0.97925143  0.37025108     1.01400
C486        C  0.89234585  0.01742401  0.51577049     1.14300
C487        C  0.95479688  0.90333142  0.47590847     1.05100
O488        O  0.91365052  0.86441961  0.37337149    -0.94500
O489        O  0.86020552  0.84683678  0.41598690    -0.90200
O490        O  0.81697909  0.86324352  0.41399124    -0.83400
C491        C  0.83448092  0.84424012  0.40850929     1.11800
O492        O  0.88565029  0.93816198  0.61846327    -0.96500
Zr493      Zr  0.85687830  0.92216010  0.55331691     1.88900
O494        O  0.79608792  0.88466729  0.50322576    -0.73100
O495        O  0.89826706  0.84235621  0.48918223    -0.52400
O496        O  0.87429144  0.88495612  0.60332876    -0.97100
O497        O  0.83241610  0.95045763  0.61079353    -0.54300
O498        O  0.81859704  0.89299030  0.57270058    -0.73600
C499        C  0.79956495  0.88161271  0.54874347     0.98700
O500        O  0.78775627  0.90377366  0.37108879    -0.62500
O501        O  0.83783569  0.01677350  0.39701995    -0.57300
O502        O  0.77749800  0.93596854  0.44950649    -0.93900
O503        O  0.78924833  0.98046025  0.46550819    -0.92400
O504        O  0.86871344  0.99173614  0.31383462    -0.92700
O505        O  0.85101918  0.94004207  0.28512006    -0.91500
C506        C  0.77159489  0.96087440  0.46060760     1.17600
H507        H  0.88811652  0.99782472  0.40826606     0.33500
H508        H  0.85575986  0.89385385  0.36245512     0.44300
H509        H  0.80776666  0.94424759  0.52035636     0.37900
H510        H  0.91076035  0.90883566  0.53056156     0.34400
H511        H  0.90709127  0.93430478  0.26966365     0.26100
H512        H  0.91306847  0.83261016  0.47234846     0.32100
H513        H  0.87664418  0.86927864  0.58120978     0.38000
H514        H  0.87781869  0.99016305  0.28231345     0.32400
H515        H  0.81821620  0.01915962  0.39041045     0.31300
H516        H  0.80678568  0.03206477  0.47559489     0.33000
H517        H  0.81542159  0.94013091  0.61824172     0.32000
H518        H  0.83312276  0.93419629  0.29830395     0.36000
H519        H  0.78468608  0.92256172  0.35803618     0.28700
H520        H  0.95625387  0.97695521  0.53036488     0.32900
H521        H  0.89051998  0.95747484  0.60981633     0.35800
H522        H  0.84378011  0.03453455  0.41114370     0.28400
H523        H  0.79867859  0.89464211  0.34601341     0.41300
H524        H  0.92458655  0.84915680  0.38680055     0.31300
H525        H  0.91868342  0.91506164  0.30979468     0.38900
H526        H  0.82645106  0.96686791  0.59239980     0.30800
H527        H  0.90658426  0.84870833  0.51943326     0.30900
H528        H  0.94348772  0.95130125  0.55741726     0.31100
Zr529      Zr  0.58703214  0.50437938  0.98478223     2.17500
O530        O  0.54877933  0.48383094  0.02751058    -0.51200
O531        O  0.56275948  0.47080290  0.93620674    -0.74400
O532        O  0.54925566  0.53459186  0.98896213    -0.81200
O533        O  0.64352037  0.46762018  0.05499408    -0.83000
O534        O  0.55381966  0.57508498  0.94839476    -0.78600
O535        O  0.60013527  0.48315593  0.06094047    -0.90200
O536        O  0.56732951  0.48680167  0.86139365    -0.76200
O537        O  0.58545267  0.52505782  0.90782065    -0.85700
O538        O  0.61882314  0.47772760  0.94164739    -0.85400
O539        O  0.59825710  0.55264610  0.99570400    -0.72100
O540        O  0.62936588  0.51188929  0.02290733    -0.84300
Zr541      Zr  0.67439876  0.55474488  0.91679905     2.26400
Zr542      Zr  0.59959982  0.57225296  0.91630895     2.06300
Zr543      Zr  0.66193150  0.48625603  0.97963397     2.10000
Zr544      Zr  0.61715921  0.49888467  0.86432212     1.78800
O545        O  0.68940131  0.45356265  0.02488892    -0.93100
O546        O  0.60352726  0.51926749  0.78823821    -0.40900
O547        O  0.66150922  0.50701654  0.90195078    -0.77500
O548        O  0.63262054  0.54599495  0.87330797    -0.96200
O549        O  0.64106664  0.57985452  0.95908633    -0.89500
O550        O  0.67369755  0.53392737  0.99378776    -0.92300
C551        C  0.55278520  0.47521289  0.89467544     1.01400
C552        C  0.62116531  0.47092702  0.07819215     1.14300
C553        C  0.54099837  0.55847329  0.97654105     1.05100
O554        O  0.56904469  0.57874553  0.84881999    -0.94500
O555        O  0.62265951  0.60104309  0.85642158    -0.90200
O556        O  0.66806937  0.59240445  0.86212039    -0.83400
C557        C  0.64761720  0.60457120  0.84382806     1.11800
O558        O  0.61469258  0.55056619  0.11012246    -0.96500
Zr559      Zr  0.64023977  0.55891476  0.03635683     1.88900
O560        O  0.69439578  0.59449176  0.96235794    -0.73100
O561        O  0.59409217  0.61935699  0.94447156    -0.52400
O562        O  0.61803863  0.60130143  0.06125649    -0.97100
O563        O  0.66936610  0.54526257  0.10282737    -0.54300
O564        O  0.67513509  0.59407003  0.03637590    -0.73600
C565        C  0.69156210  0.60416443  0.00525518     0.98700
O566        O  0.70531738  0.55388999  0.84812863    -0.62500
O567        O  0.66314393  0.44753882  0.92435883    -0.57300
O568        O  0.71806096  0.53537648  0.93663376    -0.93900
O569        O  0.71101875  0.49372187  0.97311721    -0.92400
O570        O  0.61828096  0.44926120  0.85048222    -0.92700
O571        O  0.64518902  0.48574486  0.79630745    -0.91500
C572        C  0.72643538  0.51335261  0.95745156     1.17600
H573        H  0.61363607  0.45842104  0.94193480     0.33500
H574        H  0.63467573  0.55267340  0.84088795     0.44300
H575        H  0.69051670  0.53616997  0.01107607     0.37900
H576        H  0.58587411  0.56216905  0.01656353     0.34400
H577        H  0.59327247  0.50439292  0.77188592     0.26100
H578        H  0.57857030  0.62662322  0.92589343     0.32100
H579        H  0.63046502  0.60966051  0.08504300     0.38000
H580        H  0.60368094  0.44583304  0.82686658     0.32400
H581        H  0.68274774  0.44419733  0.91888061     0.31300
H582        H  0.68435557  0.43501444  0.01293033     0.33000
H583        H  0.68806201  0.55083932  0.09332207     0.32000
H584        H  0.65785566  0.50156832  0.79143426     0.36000
H585        H  0.71273047  0.53494493  0.84749907     0.28700
H586        H  0.53264258  0.48560805  0.00661870     0.32900
H587        H  0.62223003  0.56372635  0.13371189     0.35800
H588        H  0.65665279  0.43128725  0.94302543     0.28400
H589        H  0.69338661  0.55451344  0.81965792     0.41300
H590        H  0.55632031  0.56276540  0.85037394     0.31300
H591        H  0.58952110  0.53292883  0.79691568     0.38900
H592        H  0.66941075  0.52480615  0.10186763     0.30800
H593        H  0.58700188  0.61730981  0.97753631     0.30900
H594        H  0.54551569  0.49683326  0.05398115     0.31100
Zr595      Zr  0.93192236  0.54397222  0.91507524     2.17500
O596        O  0.96159847  0.52297183  0.85567762    -0.51200
O597        O  0.96871738  0.52121927  0.95605961    -0.74400
O598        O  0.96431732  0.57789049  0.88719900    -0.81200
O599        O  0.88150789  0.48526823  0.90057718    -0.83000
O600        O  0.95821968  0.62101661  0.91675737    -0.78600
O601        O  0.91029741  0.51272344  0.85833742    -0.90200
O602        O  0.96376443  0.53048707  0.03478031    -0.76200
O603        O  0.93865180  0.57168133  0.98396712    -0.85700
O604        O  0.90905344  0.51845732  0.97655929    -0.85400
O605        O  0.91376400  0.58873228  0.89513037    -0.72100
O606        O  0.88548258  0.54170667  0.89200574    -0.84300
Zr607      Zr  0.84735803  0.58904102  0.99666574     2.26400
Zr608      Zr  0.91801235  0.61556308  0.96717238     2.06300
Zr609      Zr  0.86167450  0.51781781  0.95466027     2.10000
Zr610      Zr  0.91553869  0.54649956  0.04478364     1.78800
O611        O  0.83197244  0.48444803  0.91528979    -0.93100
O612        O  0.94059099  0.57379423  0.10314185    -0.40900
O613        O  0.86734275  0.54591278  0.02307418    -0.77500
O614        O  0.89359472  0.58995383  0.02740680    -0.96200
O615        O  0.87253068  0.61325395  0.93715319    -0.89500
O616        O  0.84317232  0.56105570  0.92813061    -0.92300
C617        C  0.97804572  0.52205358  0.99870557     1.01400
C618        C  0.89335167  0.49237791  0.86178282     1.14300
C619        C  0.96981379  0.60380151  0.88880337     1.05100
O620        O  0.95407681  0.63295228  0.01873730    -0.94500
O621        O  0.89682233  0.64738295  0.02422982    -0.90200
O622        O  0.85341949  0.63171555  0.03595170    -0.83400
C623        C  0.87293680  0.64858433  0.04316213     1.11800
O624        O  0.88643371  0.56980379  0.79171600    -0.96500
Zr625      Zr  0.86826179  0.58504530  0.86815431     1.88900
O626        O  0.81999093  0.62256348  0.94796024    -0.73100
O627        O  0.91309601  0.65970798  0.92598154    -0.52400
O628        O  0.88325887  0.62398888  0.81855591    -0.97100
O629        O  0.83374182  0.56344602  0.81793857    -0.54300
O630        O  0.83153228  0.61729916  0.86983793    -0.73600
C631        C  0.81781141  0.62876076  0.90285819     0.98700
O632        O  0.82264651  0.59165222  0.07261519    -0.62500
O633        O  0.86421960  0.48659290  0.02314791    -0.57300
O634        O  0.80483337  0.56353108  0.99767933    -0.93900
O635        O  0.81321913  0.51986629  0.97272099    -0.92400
O636        O  0.91249719  0.49996752  0.07855874    -0.92700
O637        O  0.89778194  0.54567599  0.12624991    -0.91500
C638        C  0.79721691  0.53900468  0.98676979     1.17600
H639        H  0.91635383  0.50011419  0.98047403     0.33500
H640        H  0.89393167  0.59964469  0.05744935     0.44300
H641        H  0.82478959  0.55939679  0.91645508     0.37900
H642        H  0.92208712  0.59754087  0.86765861     0.34400
H643        H  0.95624788  0.56221951  0.11238379     0.26100
H644        H  0.92930537  0.67062634  0.93552948     0.32100
H645        H  0.87723700  0.64062273  0.83591267     0.38000
H646        H  0.93102535  0.49233692  0.07537640     0.32400
H647        H  0.84776683  0.49059730  0.04233951     0.31300
H648        H  0.83101143  0.46833453  0.93729548     0.33000
H649        H  0.81605513  0.56980963  0.83058335     0.32000
H650        H  0.88290454  0.55933445  0.12595837     0.36000
H651        H  0.81768549  0.57237715  0.08133582     0.28700
H652        H  0.98045800  0.52776098  0.86509656     0.32900
H653        H  0.90555283  0.56488877  0.79853362     0.35800
H654        H  0.86081148  0.46797518  0.00988943     0.28400
H655        H  0.83655919  0.59666259  0.09667237     0.41300
H656        H  0.96886127  0.61930199  0.01589175     0.31300
H657        H  0.94873454  0.58920450  0.08434563     0.38900
H658        H  0.83433168  0.54357178  0.82655282     0.30800
H659        H  0.91618515  0.65551493  0.89177954     0.30900
H660        H  0.95852991  0.53369780  0.82591165     0.31100
Zr661      Zr  0.73703766  0.75558684  0.60947339     2.17500
O662        O  0.76881285  0.77026848  0.54659828    -0.51200
O663        O  0.69806621  0.76974529  0.55908414    -0.74400
O664        O  0.74553491  0.72083582  0.54952217    -0.81200
O665        O  0.75630145  0.82270467  0.67180873    -0.83000
O666        O  0.73182406  0.67853276  0.57635089    -0.78600
O667        O  0.75431415  0.80182493  0.59913067    -0.90200
O668        O  0.65942737  0.76757771  0.60373600    -0.76200
O669        O  0.69787807  0.72821272  0.62616588    -0.85700
O670        O  0.71175087  0.78233633  0.66497789    -0.85400
O671        O  0.75582395  0.71406127  0.64390711    -0.72100
O672        O  0.76657759  0.76228895  0.67776715    -0.84300
Zr673      Zr  0.71708674  0.71898981  0.78437679     2.26400
Zr674      Zr  0.71604396  0.68641365  0.65945926     2.06300
Zr675      Zr  0.74067534  0.78894243  0.73316940     2.10000
Zr676      Zr  0.67288241  0.75471716  0.68308033     1.78800
O677        O  0.78387100  0.80898872  0.75844115    -0.93100
O678        O  0.63242513  0.72721862  0.66494217    -0.40900
O679        O  0.70073936  0.76193930  0.75220884    -0.77500
O680        O  0.68874241  0.71249510  0.71501474    -0.96200
O681        O  0.74335209  0.69227528  0.73023647    -0.89500
O682        O  0.75643579  0.74663255  0.76875785    -0.92300
C683        C  0.67213994  0.77239718  0.56472288     1.01400
C684        C  0.75955463  0.82241552  0.62593626     1.14300
C685        C  0.74279828  0.69466641  0.54458466     1.05100
O686        O  0.67979907  0.66436197  0.61399304    -0.94500
O687        O  0.68991874  0.65611815  0.71265809    -0.90200
O688        O  0.69136067  0.67629438  0.78613007    -0.83400
C689        C  0.68367538  0.65743437  0.75723053     1.11800
O690        O  0.82236183  0.72872744  0.66485945    -0.96500
Zr691      Zr  0.78246832  0.72013416  0.71491999     1.88900
O692        O  0.75031416  0.69268454  0.83122119    -0.73100
O693        O  0.74207744  0.64393504  0.66419109    -0.52400
O694        O  0.80316917  0.67766668  0.68676484    -0.97100
O695        O  0.81916171  0.74433871  0.75623467    -0.54300
O696        O  0.78963658  0.69273384  0.78846016    -0.73600
C697        C  0.77519043  0.68552193  0.82510895     0.98700
O698        O  0.68620011  0.71497730  0.85277972    -0.62500
O699        O  0.71433771  0.82979810  0.75246624    -0.57300
O700        O  0.71699978  0.75325486  0.84723711    -0.93900
O701        O  0.73624514  0.79353776  0.82053924    -0.92400
O702        O  0.65534469  0.80148478  0.68908472    -0.92700
O703        O  0.63699795  0.75486479  0.74350922    -0.91500
C704        C  0.72590481  0.77796561  0.85371789     1.17600
H705        H  0.70641048  0.79978297  0.65104592     0.33500
H706        H  0.67180421  0.70323509  0.72257616     0.44300
H707        H  0.76643215  0.75003926  0.79784337     0.37900
H708        H  0.76806956  0.70502778  0.62215241     0.34400
H709        H  0.61845628  0.74086101  0.65572146     0.26100
H710        H  0.73060593  0.63000458  0.64782056     0.32100
H711        H  0.79620627  0.66300968  0.70861990     0.38000
H712        H  0.63608985  0.79992432  0.67902719     0.32400
H713        H  0.71428986  0.84106144  0.72275821     0.31300
H714        H  0.78069098  0.82915423  0.75916333     0.33000
H715        H  0.81427495  0.74371440  0.79062735     0.32000
H716        H  0.64542663  0.76349071  0.77191446     0.36000
H717        H  0.66776064  0.71273773  0.83906636     0.28700
H718        H  0.75941249  0.76718369  0.51576660     0.32900
H719        H  0.81487404  0.73376478  0.63315271     0.35800
H720        H  0.69538625  0.82288974  0.75573076     0.28400
H721        H  0.69020064  0.69705589  0.86846748     0.41300
H722        H  0.66526785  0.67833884  0.61233707     0.31300
H723        H  0.63687430  0.71769362  0.63473074     0.38900
H724        H  0.81712402  0.76396749  0.74683948     0.30800
H725        H  0.75774156  0.64700188  0.64234307     0.30900
H726        H  0.78386706  0.75681312  0.54727282     0.31100
Zr727      Zr  0.74401612  0.74590214  0.29259744     2.17500
O728        O  0.70834841  0.73809346  0.35228250    -0.51200
O729        O  0.77677053  0.77286112  0.33918189    -0.74400
O730        O  0.75838382  0.71434380  0.35325011    -0.81200
O731        O  0.70299919  0.80446769  0.24714565    -0.83000
O732        O  0.78527591  0.68172490  0.31965990    -0.78600
O733        O  0.71761920  0.78453204  0.31646618    -0.90200
O734        O  0.80745710  0.79168449  0.28697880    -0.76200
O735        O  0.78930900  0.73952252  0.26601784    -0.85700
O736        O  0.75267399  0.78231922  0.23678325    -0.85400
O737        O  0.74320245  0.70034938  0.25895652    -0.72100
O738        O  0.70966366  0.74014260  0.23206625    -0.84300
Zr739      Zr  0.76554900  0.72388220  0.11304670     2.26400
Zr740      Zr  0.78919675  0.69412497  0.23313225     2.06300
Zr741      Zr  0.71884912  0.77683328  0.17640492     2.10000
Zr742      Zr  0.79707621  0.77538358  0.20816029     1.78800
O743        O  0.66969726  0.77367211  0.16724940    -0.93100
O744        O  0.84587723  0.76957629  0.21898171    -0.40900
O745        O  0.76414956  0.76962627  0.14632381    -0.77500
O746        O  0.79858796  0.73066508  0.17558461    -0.96200
O747        O  0.75691951  0.68761755  0.16922741    -0.89500
O748        O  0.71991341  0.73173563  0.13921414    -0.92300
C749        C  0.79783031  0.78774245  0.32896844     1.01400
C750        C  0.70532987  0.80346360  0.29349701     1.14300
C751        C  0.77253330  0.69243724  0.35552011     1.05100
O752        O  0.83435399  0.69046702  0.26799928    -0.94500
O753        O  0.82249659  0.68089984  0.17255018    -0.90200
O754        O  0.80859509  0.70023081  0.10218667    -0.83400
C755        C  0.82554098  0.68669781  0.12785329     1.11800
O756        O  0.67874520  0.68422790  0.25817777    -0.96500
Zr757      Zr  0.71132497  0.69525270  0.19466462     1.88900
O758        O  0.74255954  0.68570000  0.07097755    -0.73100
O759        O  0.78325998  0.64414510  0.23135531    -0.52400
O760        O  0.71213558  0.64627082  0.21541946    -0.97100
O761        O  0.66474782  0.70098706  0.16673710    -0.54300
O762        O  0.70937735  0.66893921  0.12002548    -0.73600
C763        C  0.72290632  0.66878898  0.08057990     0.98700
O764        O  0.78535002  0.73060643  0.03345065    -0.62500
O765        O  0.71957832  0.82543862  0.15308344    -0.57300
O766        O  0.75107497  0.75893526  0.05676098    -0.93900
O767        O  0.71797871  0.78567140  0.08928284    -0.92400
O768        O  0.79165813  0.82498879  0.19651394    -0.92700
O769        O  0.82472169  0.79316345  0.14207008    -0.91500
C770        C  0.73277411  0.77754912  0.05388253     1.17600
H771        H  0.75253382  0.80032219  0.25137322     0.33500
H772        H  0.81721707  0.73103731  0.16482531     0.44300
H773        H  0.70741464  0.73077184  0.11265506     0.37900
H774        H  0.73810653  0.68671535  0.28282072     0.34400
H775        H  0.85250470  0.78758700  0.23115060     0.26100
H776        H  0.80064751  0.63683097  0.24367498     0.32100
H777        H  0.72890211  0.63924743  0.20022910     0.38000
H778        H  0.79159749  0.83290857  0.22906898     0.32400
H779        H  0.70229417  0.83302151  0.16538265     0.31300
H780        H  0.66362807  0.79310236  0.16574399     0.33000
H781        H  0.66581172  0.70032807  0.13138633     0.32000
H782        H  0.81590665  0.78576767  0.11297565     0.36000
H783        H  0.80390550  0.73817228  0.03858541     0.28700
H784        H  0.71697531  0.74147978  0.38370960     0.32900
H785        H  0.66683120  0.66945771  0.24527942     0.35800
H786        H  0.73385382  0.83389253  0.17333229     0.28400
H787        H  0.78805867  0.71187891  0.02030679     0.41300
H788        H  0.83791532  0.70881004  0.28225918     0.31300
H789        H  0.84744948  0.75678729  0.24663020     0.38900
H790        H  0.66031248  0.72040824  0.17395551     0.30800
H791        H  0.76989497  0.64002588  0.25710331     0.30900
H792        H  0.70460424  0.71795098  0.35175489     0.31100
Zr793      Zr  0.54221129  0.42038687  0.17322318     2.17500
O794        O  0.55138203  0.45573353  0.11409112    -0.51200
O795        O  0.50569962  0.44876540  0.20304323    -0.74400
O796        O  0.51466794  0.41471796  0.10208408    -0.81200
O797        O  0.60857920  0.44222212  0.22317009    -0.83000
O798        O  0.50567907  0.36904262  0.09073506    -0.78600
O799        O  0.56790346  0.45912462  0.20523897    -0.90200
O800        O  0.48824550  0.42539571  0.26694629    -0.76200
O801        O  0.51039089  0.38495454  0.19392989    -0.85700
O802        O  0.54655474  0.41643720  0.25772999    -0.85400
O803        O  0.55651315  0.38010240  0.12985411    -0.72100
O804        O  0.58835139  0.40778636  0.18694395    -0.84300
Zr805      Zr  0.57723967  0.32669806  0.24816905     2.26400
Zr806      Zr  0.52578789  0.34358229  0.15501022     2.06300
Zr807      Zr  0.59287253  0.40293628  0.27162443     2.10000
Zr808      Zr  0.51481921  0.38127212  0.27787646     1.78800
O809        O  0.63709293  0.42047181  0.29728569    -0.93100
O810        O  0.46900833  0.36367643  0.26296427    -0.40900
O811        O  0.56142478  0.36666233  0.29198095    -0.77500
O812        O  0.52973263  0.33863543  0.23956511    -0.96200
O813        O  0.57246420  0.33266119  0.16496140    -0.89500
O814        O  0.60810603  0.36311927  0.22833808    -0.92300
C815        C  0.48888291  0.44656036  0.23791799     1.01400
C816        C  0.59368152  0.45991585  0.20144281     1.14300
C817        C  0.50457998  0.39446143  0.07849212     1.05100
O818        O  0.47870019  0.33150066  0.17355189    -0.94500
O819        O  0.52988687  0.29309998  0.15930252    -0.90200
O820        O  0.56287773  0.28342727  0.21336949    -0.83400
C821        C  0.54554699  0.27622962  0.18156038     1.11800
O822        O  0.61231358  0.40067459  0.07733364    -0.96500
Zr823      Zr  0.60294911  0.36909915  0.14392233     1.88900
O824        O  0.61688682  0.30280878  0.21074902    -0.73100
O825        O  0.52299033  0.31781140  0.08034814    -0.52400
O826        O  0.60287997  0.34860343  0.06462517    -0.97100
O827        O  0.64755716  0.39065175  0.15526633    -0.54300
O828        O  0.63050800  0.32873912  0.14671662    -0.73600
C829        C  0.63212857  0.30741986  0.17349245     0.98700
O830        O  0.56495611  0.29412283  0.31193217    -0.62500
O831        O  0.57734644  0.43192486  0.33708914    -0.57300
O832        O  0.60692153  0.32899461  0.31526929    -0.93900
O833        O  0.61547643  0.37433495  0.33134960    -0.92400
O834        O  0.51525584  0.40188697  0.35716741    -0.92700
O835        O  0.49948347  0.35327552  0.34578869    -0.91500
C836        C  0.61771717  0.34834862  0.33963163     1.17600
H837        H  0.54219141  0.43359986  0.27325529     0.33500
H838        H  0.51844973  0.32335121  0.25040830     0.44300
H839        H  0.62659700  0.35845120  0.23649591     0.37900
H840        H  0.55538780  0.38322647  0.09577701     0.34400
H841        H  0.45802229  0.37018998  0.29033879     0.26100
H842        H  0.50360122  0.31797671  0.07080136     0.32100
H843        H  0.58610050  0.33712534  0.06390434     0.38000
H844        H  0.51900257  0.42178637  0.35153097     0.32400
H845        H  0.58778256  0.42558466  0.36527857     0.31300
H846        H  0.63321769  0.43767297  0.31489730     0.33000
H847        H  0.66073680  0.37536987  0.15325664     0.32000
H848        H  0.50283957  0.33396126  0.33613319     0.36000
H849        H  0.55955282  0.30589891  0.33913836     0.28700
H850        H  0.53309178  0.46314206  0.10724668     0.32900
H851        H  0.63147402  0.39746465  0.06797797     0.35800
H852        H  0.58480297  0.45055477  0.32964199     0.28400
H853        H  0.54766005  0.28540941  0.30160145     0.41300
H854        H  0.47473934  0.31513027  0.15361627     0.31300
H855        H  0.46236117  0.37463042  0.23539208     0.38900
H856        H  0.64797902  0.39638894  0.18919124     0.30800
H857        H  0.53261961  0.32923716  0.05596135     0.30900
H858        H  0.55670374  0.44519416  0.08536547     0.31100
Zr859      Zr  0.54720139  0.06216731  0.20985394     2.17500
O860        O  0.52518194  0.02552123  0.25718813    -0.51200
O861        O  0.52702130  0.02813480  0.15629478    -0.74400
O862        O  0.50587804  0.07723474  0.24751801    -0.81200
O863        O  0.61987379  0.03701351  0.24262971    -0.83000
O864        O  0.49842466  0.12287864  0.23426139    -0.78600
O865        O  0.57510679  0.03517654  0.26316901    -0.90200
O866        O  0.53667628  0.03890708  0.07910843    -0.76200
O867        O  0.53064713  0.09167242  0.14835731    -0.85700
O868        O  0.57823008  0.05395955  0.14584012    -0.85400
O869        O  0.54970659  0.10799311  0.24420290    -0.72100
O870        O  0.59088000  0.07650707  0.23577972    -0.84300
Zr871      Zr  0.60937627  0.14456262  0.14874752     2.26400
Zr872      Zr  0.53471456  0.13773405  0.18023646     2.06300
Zr873      Zr  0.62238796  0.06818580  0.17362668     2.10000
Zr874      Zr  0.56222596  0.08412226  0.08475676     1.78800
O875        O  0.66692438  0.05852466  0.20755665    -0.93100
O876        O  0.52167085  0.09711096  0.04035780    -0.40900
O877        O  0.60654349  0.09903125  0.11305851    -0.77500
O878        O  0.56566980  0.13138313  0.11516122    -0.96200
O879        O  0.57819836  0.15041387  0.21204405    -0.89500
O880        O  0.62510542  0.11334286  0.20801848    -0.92300
C881        C  0.52570187  0.02294855  0.11141812     1.01400
C882        C  0.60019860  0.02940249  0.27022880     1.14300
C883        C  0.49307815  0.09971256  0.25477095     1.05100
O884        O  0.50440051  0.13947856  0.11166047    -0.94500
O885        O  0.54664713  0.18685737  0.17186347    -0.90200
O886        O  0.59128765  0.19096677  0.15149120    -0.83400
C887        C  0.56807909  0.20126992  0.16190757     1.11800
O888        O  0.57407844  0.10341941  0.34740695    -0.96500
Zr889      Zr  0.59388542  0.12008249  0.27234837     1.88900
O890        O  0.64072086  0.16862449  0.20598077    -0.73100
O891        O  0.50530219  0.17561900  0.20430356    -0.52400
O892        O  0.57463830  0.15848216  0.31650964    -0.97100
O893        O  0.62723191  0.09672257  0.32237568    -0.54300
O894        O  0.62933643  0.15409786  0.28099997    -0.73600
C895        C  0.64381126  0.16856779  0.25209157     0.98700
O896        O  0.61904936  0.17039101  0.07515518    -0.62500
O897        O  0.62822559  0.02625057  0.12702137    -0.57300
O898        O  0.65292629  0.13305086  0.11800318    -0.93900
O899        O  0.65991346  0.08672582  0.12499858    -0.92400
O900        O  0.58768801  0.05582024  0.02892959    -0.92700
O901        O  0.57408467  0.10685177  0.00934220    -0.91500
C902        C  0.66653869  0.11118764  0.11078229     1.17600
H903        H  0.57824400  0.03482290  0.13635955     0.33500
H904        H  0.56120093  0.14416546  0.08972135     0.44300
H905        H  0.64373398  0.11685392  0.21720037     0.37900
H906        H  0.53976837  0.10994399  0.27369899     0.34400
H907        H  0.52221548  0.08575155  0.01104649     0.26100
H908        H  0.48640316  0.16952439  0.19772887     0.32100
H909        H  0.55761950  0.16301297  0.29940860     0.38000
H910        H  0.60623902  0.05499820  0.04251963     0.32400
H911        H  0.64417700  0.03018014  0.10624271     0.31300
H912        H  0.67005106  0.03870538  0.20117929     0.33000
H913        H  0.64282568  0.09335845  0.30072555     0.32000
H914        H  0.59224867  0.11522439  0.01501454     0.36000
H915        H  0.62499566  0.15638506  0.05177795     0.28700
H916        H  0.50636612  0.02381163  0.24489694     0.32900
H917        H  0.56627534  0.08506031  0.33964830     0.35800
H918        H  0.63472201  0.01233010  0.15036916     0.28400
H919        H  0.60103692  0.17620069  0.06316060     0.41300
H920        H  0.48608094  0.13572085  0.12522390     0.31300
H921        H  0.50628422  0.08925847  0.05913743     0.38900
H922        H  0.61950036  0.07808228  0.32868124     0.30800
H923        H  0.50659584  0.17643072  0.23963747     0.30900
H924        H  0.52308001  0.03299182  0.28989653     0.31100
Zr925      Zr  0.96756894  0.08606678  0.65724247     2.17500
O926        O  0.97951249  0.05617497  0.59062282    -0.51200
O927        O  0.98350377  0.04756244  0.70488663    -0.74400
O928        O  0.01456986  0.09536708  0.63508665    -0.81200
O929        O  0.89139442  0.06655744  0.66113194    -0.83000
O930        O  0.01781174  0.13903212  0.60820979    -0.78600
O931        O  0.93180957  0.05779579  0.62436099    -0.90200
O932        O  0.99175934  0.06606637  0.77769637    -0.76200
O933        O  0.99384081  0.11578389  0.70691041    -0.85700
O934        O  0.94319938  0.08419744  0.73114675    -0.85400
O935        O  0.96830478  0.13042859  0.61726722    -0.72100
O936        O  0.92364086  0.10440043  0.64273304    -0.84300
Zr937      Zr  0.92484176  0.17783850  0.72387454     2.26400
Zr938      Zr  0.99287993  0.16127829  0.67083946     2.06300
Zr939      Zr  0.89937456  0.10408110  0.71657595     2.10000
Zr940      Zr  0.96986280  0.11330547  0.78040495     1.78800
O941        O  0.85343726  0.08642468  0.70314078    -0.93100
O942        O  0.01583924  0.12071094  0.81050755    -0.40900
O943        O  0.92543481  0.13387808  0.76645523    -0.77500
O944        O  0.96910020  0.15991527  0.74538737    -0.96200
O945        O  0.94890816  0.17808300  0.65046442    -0.89500
O946        O  0.89957587  0.14729281  0.67462101    -0.92300
C947        C  0.99282493  0.04572953  0.74748682     1.01400
C948        C  0.90606500  0.05426567  0.63001499     1.14300
C949        C  0.02196529  0.11321883  0.60382908     1.05100
O950        O  0.02878213  0.16250106  0.73057936    -0.94500
O951        O  0.98695722  0.21189195  0.67218950    -0.90200
O952        O  0.95029544  0.22056493  0.71892124    -0.83400
C953        C  0.97115272  0.22849196  0.69467874     1.11800
O954        O  0.93039111  0.12046446  0.52805181    -0.96500
Zr955      Zr  0.92428303  0.14685463  0.60112672     1.88900
O956        O  0.89667696  0.20667485  0.66883535    -0.73100
O957        O  0.02872180  0.19026415  0.63529721    -0.52400
O958        O  0.94726213  0.17624688  0.54219229    -0.97100
O959        O  0.88226232  0.13113078  0.56351709    -0.54300
O960        O  0.89729202  0.18705490  0.59515378    -0.73600
C961        C  0.88971901  0.20554431  0.62419317     0.98700
O962        O  0.92283455  0.20325217  0.79883387    -0.62500
O963        O  0.89581982  0.07516943  0.78817375    -0.57300
O964        O  0.87984899  0.17750333  0.75652501    -0.93900
O965        O  0.86388629  0.13336780  0.75087917    -0.92400
O966        O  0.94605982  0.08882394  0.84475638    -0.92700
O967        O  0.97197949  0.13784384  0.85607383    -0.91500
C968        C  0.86145787  0.15897283  0.76193195     1.17600
H969        H  0.94115799  0.06566459  0.74375851     0.33500
H970        H  0.97773041  0.17261082  0.76726997     0.44300
H971        H  0.88121607  0.15345632  0.66910347     0.37900
H972        H  0.97503591  0.12864835  0.58500591     0.34400
H973        H  0.01707685  0.10860580  0.83913647     0.26100
H974        H  0.04582476  0.17972836  0.63811960     0.32100
H975        H  0.96497235  0.18106980  0.55690090     0.38000
H976        H  0.94924405  0.06899070  0.83862574     0.32400
H977        H  0.87858445  0.08070541  0.80366952     0.31300
H978        H  0.84704840  0.07941177  0.73463770     0.33000
H979        H  0.86751951  0.14037945  0.58132760     0.32000
H980        H  0.95496934  0.14862824  0.85709034     0.36000
H981        H  0.91646139  0.18947455  0.82285429     0.28700
H982        H  0.99734497  0.04815398  0.59901485     0.32900
H983        H  0.93526987  0.10170002  0.53927100     0.35800
H984        H  0.89211737  0.05634316  0.77599468     0.28400
H985        H  0.94205789  0.20676289  0.80761698     0.41300
H986        H  0.04331939  0.15079760  0.71718436     0.31300
H987        H  0.02785127  0.11190263  0.78666880     0.38900
H988        H  0.88049056  0.11141947  0.57293085     0.30800
H989        H  0.02484584  0.19107438  0.60055380     0.30900
H990        H  0.98335849  0.06883687  0.56339669     0.31100
Zr991      Zr  0.93904061  0.44796655  0.71419792     2.17500
O992        O  0.94429456  0.48595512  0.77025220    -0.51200
O993        O  0.95778198  0.47888547  0.65492517    -0.74400
O994        O  0.98300870  0.44791568  0.75296118    -0.81200
O995        O  0.86394387  0.45796686  0.73140287    -0.83000
O996        O  0.00242001  0.41330880  0.71309270    -0.78600
O997        O  0.90121849  0.47926390  0.70454231    -0.90200
O998        O  0.95504265  0.45549754  0.58497419    -0.76200
O999        O  0.96318755  0.41667979  0.66424345    -0.85700
O1000       O  0.90891099  0.43870736  0.64895837    -0.85400
O1001       O  0.94817861  0.40732443  0.76295729    -0.72100
O1002       O  0.89876235  0.42770695  0.74878570    -0.84300
Zr1003     Zr  0.90101872  0.34639729  0.68671225     2.26400
Zr1004     Zr  0.97059458  0.37516530  0.71047047     2.06300
Zr1005     Zr  0.86876927  0.41713513  0.68312574     2.10000
Zr1006     Zr  0.93335970  0.40828986  0.59996908     1.78800
O1007       O  0.82245973  0.43089600  0.70267282    -0.93100
O1008       O  0.97511019  0.39827038  0.55640266    -0.40900
O1009       O  0.89293651  0.38547128  0.63374432    -0.77500
O1010       O  0.94034706  0.36605631  0.64621668    -0.96200
O1011       O  0.93118178  0.35672449  0.74972441    -0.89500
O1012       O  0.87759257  0.37867012  0.73474085    -0.92300
C1013       C  0.96141387  0.47734186  0.60978477     1.01400
C1014       C  0.88115535  0.47787531  0.73309222     1.14300
C1015       C  0.00219488  0.43055218  0.74716666     1.05100
O1016       O  0.00310345  0.36002688  0.65034768    -0.94500
O1017       O  0.97405084  0.32453841  0.71400670    -0.90200
O1018       O  0.93124955  0.30810123  0.70041972    -0.83400
C1019       C  0.95646668  0.30477632  0.71011123     1.11800
O1020       O  0.91838106  0.42076911  0.86301839    -0.96500
Zr1021     Zr  0.90791355  0.38900885  0.79827429     1.88900
O1022       O  0.88000347  0.32103760  0.75537381    -0.73100
O1023       O  0.00035430  0.36243831  0.77652490    -0.52400
O1024       O  0.93526576  0.36908900  0.86206428    -0.97100
O1025       O  0.86590634  0.40410622  0.83636270    -0.54300
O1026       O  0.88658023  0.34653153  0.82242857    -0.73600
C1027       C  0.87737624  0.32539204  0.80076490     0.98700
O1028       O  0.89796891  0.31263307  0.62260003    -0.62500
O1029       O  0.85647250  0.43915581  0.60760986    -0.57300
O1030       O  0.85375059  0.33914194  0.67012381    -0.93900
O1031       O  0.83357699  0.38119808  0.67382714    -0.92400
O1032       O  0.90197219  0.42608941  0.54026731    -0.92700
O1033       O  0.92924979  0.37824467  0.53081325    -0.91500
C1034       C  0.83299251  0.35476218  0.66944628     1.17600
H1035       H  0.90468957  0.45507368  0.63052739     0.33500
H1036       H  0.94814360  0.35223924  0.62563929     0.44300
H1037       H  0.86084559  0.37132413  0.74802999     0.37900
H1038       H  0.95954122  0.41118444  0.79022316     0.34400
H1039       H  0.97804109  0.41438822  0.53489198     0.26100
H1040       H  0.01882030  0.36854453  0.76658935     0.32100
H1041       H  0.94527110  0.35384604  0.84671133     0.38000
H1042       H  0.91052897  0.44347509  0.52855522     0.32400
H1043       H  0.83905696  0.43031840  0.59824620     0.31300
H1044       H  0.81369984  0.43539802  0.67179209     0.33000
H1045       H  0.85585303  0.38698652  0.84521277     0.32000
H1046       H  0.91281054  0.36683269  0.53746522     0.36000
H1047       H  0.88271138  0.30009555  0.63155514     0.28700
H1048       H  0.96045717  0.49653483  0.75894120     0.32900
H1049       H  0.92713262  0.43691703  0.84712249     0.35800
H1050       H  0.85157794  0.45827120  0.61637986     0.28400
H1051       H  0.89127316  0.32322137  0.59464083     0.41300
H1052       H  0.01805962  0.37386374  0.65119897     0.31300
H1053       H  0.98973057  0.39984601  0.58051739     0.38900
H1054       H  0.85508666  0.41224070  0.81006236     0.30800
H1055       H  0.99531805  0.37477281  0.80315344     0.30900
H1056       H  0.94989295  0.47732853  0.80085692     0.31100
Zr1057     Zr  0.76453282  0.24688762  0.88182759     2.17500
O1058       O  0.75838633  0.28173201  0.81921846    -0.51200
O1059       O  0.79055060  0.21394772  0.83430046    -0.74400
O1060       O  0.80570144  0.27193847  0.86355702    -0.81200
O1061       O  0.69712717  0.21113105  0.85641445    -0.83000
O1062       O  0.82520760  0.28467574  0.93391123    -0.78600
O1063       O  0.73007260  0.23843188  0.82283152    -0.90200
O1064       O  0.80714282  0.18160120  0.88569163    -0.76200
O1065       O  0.79903550  0.23551713  0.93765716    -0.85700
O1066       O  0.75409675  0.20092177  0.90645464    -0.85400
O1067       O  0.76092338  0.28059070  0.94462968    -0.72100
O1068       O  0.71995879  0.24915855  0.91631029    -0.84300
Zr1069     Zr  0.74053859  0.22296533  0.06220904     2.26400
Zr1070     Zr  0.79564336  0.26817012  0.00082536     2.06300
Zr1071     Zr  0.70965808  0.20291933  0.94077043     2.10000
Zr1072     Zr  0.78863216  0.19006728  0.96366344     1.78800
O1073       O  0.66096708  0.20941336  0.95220488    -0.93100
O1074       O  0.83781472  0.19341373  0.97347833    -0.40900
O1075       O  0.74448965  0.19226830  0.99663436    -0.77500
O1076       O  0.78601812  0.22191313  0.02896484    -0.96200
O1077       O  0.75119106  0.26912242  0.03771658    -0.89500
O1078       O  0.70543846  0.23431554  0.00672376    -0.92300
C1079       C  0.80464360  0.19241172  0.84417542     1.01400
C1080       C  0.70756507  0.22497639  0.82119200     1.14300
C1081       C  0.82462754  0.28337303  0.88767808     1.05100
O1082       O  0.84216632  0.25915918  0.02575544    -0.94500
O1083       O  0.80132494  0.27209197  0.08749879    -0.90200
O1084       O  0.77385774  0.23872214  0.11990528    -0.83400
C1085       C  0.79207861  0.25772356  0.12299171     1.11800
O1086       O  0.70464456  0.31644686  0.92493542    -0.96500
Zr1087     Zr  0.71647240  0.28043259  0.98227839     1.88900
O1088       O  0.70368409  0.24673890  0.10449485    -0.73100
O1089       O  0.80060869  0.31771989  0.01356001    -0.52400
O1090       O  0.72862165  0.32688604  0.00822624    -0.97100
O1091       O  0.66883956  0.28076117  0.95834197    -0.54300
O1092       O  0.69192301  0.28364297  0.05874982    -0.73600
C1093       C  0.68979274  0.26868456  0.09687122     0.98700
O1094       O  0.73727705  0.19811630  0.13845221    -0.62500
O1095       O  0.69936552  0.15934561  0.90113247    -0.57300
O1096       O  0.72373714  0.17535549  0.06623175    -0.93900
O1097       O  0.70311816  0.16403649  0.99604740    -0.92400
O1098       O  0.77790726  0.14193802  0.94659963    -0.92700
O1099       O  0.79993675  0.15686557  0.02626211    -0.91500
C1100       C  0.71068577  0.15856036  0.03905715     1.17600
H1101       H  0.75371407  0.18810057  0.88015477     0.33500
H1102       H  0.79916247  0.21642417  0.05273778     0.44300
H1103       H  0.68756397  0.23268880  0.02096277     0.37900
H1104       H  0.76475912  0.29873707  0.93148177     0.34400
H1105       H  0.84116454  0.18988870  0.00788559     0.26100
H1106       H  0.79249019  0.32654299  0.98499455     0.32100
H1107       H  0.71309597  0.33289015  0.02814085     0.38000
H1108       H  0.75779822  0.14128522  0.94449659     0.32400
H1109       H  0.68105742  0.16172962  0.88710339     0.31300
H1110       H  0.65356565  0.21128458  0.91944808     0.33000
H1111       H  0.65940538  0.26819351  0.98121673     0.32000
H1112       H  0.78540771  0.15899372  0.05056985     0.36000
H1113       H  0.75553886  0.19025456  0.14405357     0.28700
H1114       H  0.77205488  0.27763772  0.79417825     0.32900
H1115       H  0.71514155  0.31190233  0.89576527     0.35800
H1116       H  0.71185709  0.15867350  0.87329271     0.28400
H1117       H  0.73513560  0.21240975  0.16333007     0.41300
H1118       H  0.84887472  0.24523765  0.00292122     0.31300
H1119       H  0.84511530  0.17700084  0.95705651     0.38900
H1120       H  0.66839460  0.27073867  0.92757744     0.30800
H1121       H  0.78776882  0.32180305  0.03990701     0.30900
H1122       H  0.76439963  0.29948686  0.83328558     0.31100
Zr1123     Zr  0.75941998  0.24699891  0.56090313     2.17500
O1124       O  0.76779184  0.20822155  0.61509228    -0.51200
O1125       O  0.77239047  0.28507161  0.61371772    -0.74400
O1126       O  0.80691765  0.24051939  0.57651797    -0.81200
O1127       O  0.68454539  0.24985368  0.59374963    -0.83000
O1128       O  0.82925726  0.24190930  0.50514133    -0.78600
O1129       O  0.72626205  0.23853457  0.62243589    -0.90200
O1130       O  0.77295812  0.32433449  0.56835599    -0.76200
O1131       O  0.78471793  0.27663534  0.50884410    -0.85700
O1132       O  0.73034279  0.28479660  0.54488455    -0.85400
O1133       O  0.76947074  0.21877079  0.49251487    -0.72100
O1134       O  0.71994099  0.22627658  0.52500841    -0.84300
Zr1135     Zr  0.72613593  0.26838581  0.38630422     2.26400
Zr1136     Zr  0.79513197  0.24904306  0.44099223     2.06300
Zr1137     Zr  0.69097328  0.26445046  0.50968534     2.10000
Zr1138     Zr  0.75535856  0.31394211  0.49073116     1.78800
O1139       O  0.65085957  0.23496336  0.50135531    -0.93100
O1140       O  0.79760142  0.33866258  0.47225876    -0.40900
O1141       O  0.71586551  0.29446167  0.45627866    -0.77500
O1142       O  0.76673088  0.28775372  0.42132697    -0.96200
O1143       O  0.75530327  0.23051164  0.40205034    -0.89500
O1144       O  0.69991497  0.23886919  0.43797014    -0.92300
C1145       C  0.77705425  0.31102163  0.60716202     1.01400
C1146       C  0.70052088  0.24106358  0.62690181     1.14300
C1147       C  0.82851651  0.23952558  0.55125173     1.05100
O1148       O  0.83551202  0.27660498  0.42195294    -0.94500
O1149       O  0.80162687  0.25544902  0.35482733    -0.90200
O1150       O  0.76195433  0.27309702  0.32674886    -0.83400
C1151       C  0.78674810  0.26561545  0.32139935     1.11800
O1152       O  0.73621919  0.16051817  0.50337807    -0.96500
Zr1153     Zr  0.72914455  0.20099549  0.45279244     1.88900
O1154       O  0.70176106  0.23409800  0.33857165    -0.73100
O1155       O  0.81660693  0.20551861  0.42045517    -0.52400
O1156       O  0.75857238  0.16858756  0.41166726    -0.97100
O1157       O  0.68744254  0.17558572  0.47245451    -0.54300
O1158       O  0.70549263  0.19262443  0.37619415    -0.73600
C1159       C  0.69728573  0.20799006  0.34131086     0.98700
O1160       O  0.71899876  0.29242997  0.31036469    -0.62500
O1161       O  0.66546439  0.29701970  0.55805998    -0.57300
O1162       O  0.68845809  0.30051369  0.39016253    -0.93900
O1163       O  0.66375481  0.29381077  0.45846091    -0.92400
O1164       O  0.72662929  0.35085660  0.52044502    -0.92700
O1165       O  0.74714963  0.35152738  0.43435955    -0.91500
C1166       C  0.66811973  0.30530575  0.41768605     1.17600
H1167       H  0.72529238  0.29436469  0.57375070     0.33500
H1168       H  0.77604905  0.30001307  0.39914719     0.44300
H1169       H  0.68284763  0.23333329  0.42379168     0.37900
H1170       H  0.78074291  0.20351356  0.50233570     0.34400
H1171       H  0.79964285  0.35242456  0.49807728     0.26100
H1172       H  0.81541132  0.20446339  0.38515630     0.32100
H1173       H  0.75957890  0.17544673  0.37822221     0.38000
H1174       H  0.71944762  0.34400447  0.55151839     0.32400
H1175       H  0.67145120  0.31552672  0.54662497     0.31300
H1176       H  0.65247721  0.22106638  0.52734203     0.33000
H1177       H  0.67288428  0.18517243  0.45465085     0.32000
H1178       H  0.74139734  0.34224206  0.40454498     0.36000
H1179       H  0.69974602  0.28892915  0.30177390     0.28700
H1180       H  0.77967670  0.21545593  0.64076496     0.32900
H1181       H  0.74146064  0.16816326  0.53484337     0.35800
H1182       H  0.64634588  0.29519862  0.54737112     0.28400
H1183       H  0.72006442  0.31239432  0.31775733     0.41300
H1184       H  0.84998397  0.26289114  0.41636653     0.31300
H1185       H  0.81214288  0.32508426  0.47836186     0.38900
H1186       H  0.68377833  0.17993371  0.50642499     0.30800
H1187       H  0.83620503  0.20855320  0.42687600     0.30900
H1188       H  0.77931436  0.19530456  0.59684764     0.31100
Zr1189     Zr  0.41405051  0.01594131  0.36567170     2.17500
O1190       O  0.44945378  0.99409973  0.31796585    -0.51200
O1191       O  0.43931361  0.98634048  0.41941630    -0.74400
O1192       O  0.45211855  0.04750533  0.35342343    -0.81200
O1193       O  0.36034957  0.96500903  0.31589718    -0.83000
O1194       O  0.44339388  0.08980630  0.38514767    -0.78600
O1195       O  0.40011480  0.98732615  0.29906313    -0.90200
O1196       O  0.42622601  0.99454967  0.49555243    -0.76200
O1197       O  0.41303059  0.04180527  0.43749582    -0.85700
O1198       O  0.38122671  0.99153773  0.41347517    -0.85400
O1199       O  0.40175734  0.06204959  0.34165454    -0.72100
O1200       O  0.37192257  0.01752712  0.32461813    -0.84300
Zr1201     Zr  0.32349956  0.06724289  0.41263232     2.26400
Zr1202     Zr  0.39755301  0.08708323  0.41532507     2.06300
Zr1203     Zr  0.33816481  0.99495148  0.37255765     2.10000
Zr1204     Zr  0.38038094  0.01773210  0.48492166     1.78800
O1205       O  0.31170200  0.96610740  0.31834373    -0.93100
O1206       O  0.40032585  0.04167897  0.55292034    -0.40900
O1207       O  0.33656690  0.02195661  0.44333576    -0.77500
O1208       O  0.36393299  0.06326442  0.46224788    -0.96200
O1209       O  0.35770142  0.08944190  0.36634525    -0.89500
O1210       O  0.32672192  0.04004995  0.34290150    -0.92300
C1211       C  0.44270643  0.98368238  0.46461834     1.01400
C1212       C  0.38114729  0.96979460  0.28939514     1.14300
C1213       C  0.45797896  0.07290797  0.36155583     1.05100
O1214       O  0.42349914  0.09683695  0.48741280    -0.94500
O1215       O  0.37273152  0.12205408  0.45942080    -0.90200
O1216       O  0.32808446  0.10930096  0.45762761    -0.83400
C1217       C  0.34759625  0.12521166  0.47040904     1.11800
O1218       O  0.39191109  0.04999201  0.23083985    -0.96500
Zr1219     Zr  0.36124433  0.06194599  0.29611415     1.88900
O1220       O  0.30474022  0.10008510  0.35116201    -0.73100
O1221       O  0.40638721  0.13273754  0.38075240    -0.52400
O1222       O  0.38073047  0.10384356  0.26064777    -0.97100
O1223       O  0.33774307  0.03834628  0.23118193    -0.54300
O1224       O  0.32449679  0.09221376  0.27900951    -0.73600
C1225       C  0.30752177  0.10462165  0.30552705     0.98700
O1226       O  0.28641643  0.07343128  0.46981797    -0.62500
O1227       O  0.33158887  0.95877357  0.43272198    -0.57300
O1228       O  0.28047051  0.04439228  0.39749737    -0.93900
O1229       O  0.28858960  0.00018513  0.37531235    -0.92400
O1230       O  0.36738563  0.97161336  0.51286589    -0.92700
O1231       O  0.35236147  0.01832866  0.55702238    -0.91500
C1232       C  0.27259721  0.02046923  0.38346221     1.17600
H1233       H  0.38631272  0.97254021  0.41891979     0.33500
H1234       H  0.36106287  0.07287775  0.49195895     0.44300
H1235       H  0.31022714  0.03986116  0.32425262     0.37900
H1236       H  0.41426226  0.07067504  0.31936154     0.34400
H1237       H  0.40500006  0.02681980  0.57593989     0.26100
H1238       H  0.42081602  0.14091729  0.40101473     0.32100
H1239       H  0.37764652  0.11835862  0.28479584     0.38000
H1240       H  0.38434964  0.96076345  0.51212240     0.32400
H1241       H  0.31486300  0.96411024  0.45007611     0.31300
H1242       H  0.30541322  0.95007172  0.33776141     0.33000
H1243       H  0.31897083  0.04556541  0.23149251     0.32000
H1244       H  0.33359568  0.01477682  0.54566448     0.36000
H1245       H  0.29518160  0.07593569  0.50136302     0.28700
H1246       H  0.46650780  0.99619927  0.33640106     0.32900
H1247       H  0.38564639  0.06079037  0.20279984     0.35800
H1248       H  0.32624645  0.94209845  0.41459811     0.28400
H1249       H  0.27839998  0.09160580  0.46193811     0.41300
H1250       H  0.44047760  0.08618787  0.48388974     0.31300
H1251       H  0.41815804  0.04856322  0.54106401     0.38900
H1252       H  0.33580325  0.01896404  0.24241347     0.30800
H1253       H  0.41533398  0.12942430  0.34953484     0.30900
H1254       H  0.45201838  0.00624907  0.28957993     0.31100
Zr1255     Zr  0.06772742  0.04208109  0.44607327     2.17500
O1256       O  0.04010256  0.02294997  0.51115356    -0.51200
O1257       O  0.03375231  0.01141877  0.41265078    -0.74400
O1258       O  0.03448432  0.07454625  0.47406431    -0.81200
O1259       O  0.13095555  0.99845812  0.48061255    -0.83000
O1260       O  0.04360464  0.11749557  0.44416039    -0.78600
O1261       O  0.09118000  0.01602537  0.50825071    -0.90200
O1262       O  0.03181255  0.01906556  0.33298882    -0.76200
O1263       O  0.05685147  0.06700110  0.37533145    -0.85700
O1264       O  0.08892507  0.01533795  0.38535148    -0.85400
O1265       O  0.08644148  0.08785922  0.45783655    -0.72100
O1266       O  0.11491709  0.04280937  0.45908967    -0.84300
Zr1267     Zr  0.14764318  0.08770280  0.34554717     2.26400
Zr1268     Zr  0.07808033  0.11171960  0.38306195     2.06300
Zr1269     Zr  0.13742401  0.01707282  0.39994334     2.10000
Zr1270     Zr  0.07802378  0.04064348  0.31468420     1.78800
O1271       O  0.16406400  0.97689710  0.42318765    -0.93100
O1272       O  0.04629906  0.06394173  0.26145164    -0.40900
O1273       O  0.12733720  0.04268672  0.32910474    -0.77500
O1274       O  0.10000968  0.08598439  0.32135122    -0.96200
O1275       O  0.12479728  0.11188654  0.40682279    -0.89500
O1276       O  0.15655007  0.06206377  0.41627348    -0.92300
C1277       C  0.02173792  0.00884239  0.37238740     1.01400
C1278       C  0.11327450  0.00227215  0.51375055     1.14300
C1279       C  0.03197210  0.10083278  0.47366087     1.05100
O1280       O  0.04835806  0.11533999  0.31390290    -0.94500
O1281       O  0.10871987  0.15020795  0.36067693    -0.90200
O1282       O  0.13710620  0.13060911  0.30760368    -0.83400
C1283       C  0.12758996  0.15157630  0.32881520     1.11800
O1284       O  0.11741903  0.07364387  0.55772049    -0.96500
Zr1285     Zr  0.13324583  0.08607837  0.47765778     1.88900
O1286       O  0.17598110  0.12355642  0.38807662    -0.73100
O1287       O  0.05901776  0.15812161  0.38476767    -0.52400
O1288       O  0.12325165  0.12697259  0.52461592    -0.97100
O1289       O  0.16901553  0.06389828  0.52397389    -0.54300
O1290       O  0.16921398  0.11877650  0.46816614    -0.73600
C1291       C  0.18033158  0.13053933  0.43222303     0.98700
O1292       O  0.16974796  0.09089487  0.26736773    -0.62500
O1293       O  0.12662219  0.97996624  0.34451999    -0.57300
O1294       O  0.19074603  0.06396332  0.33858531    -0.93900
O1295       O  0.18508371  0.02205794  0.37462399    -0.92400
O1296       O  0.08234788  0.99402554  0.28330341    -0.92700
O1297       O  0.09134754  0.03909303  0.23071443    -0.91500
C1298       C  0.19981529  0.04077648  0.35400036     1.17600
H1299       H  0.08194212  0.99661006  0.38498072     0.33500
H1300       H  0.09809650  0.09552642  0.29107813     0.44300
H1301       H  0.17547714  0.06199263  0.42528751     0.37900
H1302       H  0.07992003  0.09691955  0.48612002     0.34400
H1303       H  0.03974990  0.04941838  0.23940486     0.26100
H1304       H  0.03906720  0.15576830  0.38153710     0.32100
H1305       H  0.12164285  0.14208943  0.50074101     0.38000
H1306       H  0.06633494  0.98366846  0.29579580     0.32400
H1307       H  0.14423228  0.97529561  0.32944083     0.31300
H1308       H  0.17944188  0.98429939  0.44217329     0.33000
H1309       H  0.18623102  0.07263113  0.51284535     0.32000
H1310       H  0.10681289  0.05228873  0.22800774     0.36000
H1311       H  0.15539940  0.09676427  0.24478051     0.28700
H1312       H  0.02094728  0.02384991  0.50043385     0.32900
H1313       H  0.09744947  0.07143328  0.55474171     0.35800
H1314       H  0.12204977  0.96379815  0.36505459     0.28400
H1315       H  0.18226022  0.10700992  0.26952813     0.41300
H1316       H  0.05677178  0.13000587  0.29368914     0.31300
H1317       H  0.03026944  0.06781250  0.28179540     0.38900
H1318       H  0.16972771  0.04475854  0.51176548     0.30800
H1319       H  0.06182513  0.16490143  0.41775860     0.30900
H1320       H  0.04139788  0.03638747  0.53761538     0.31100
Zr1321     Zr  0.42361672  0.44709130  0.93278510     2.17500
O1322       O  0.44965272  0.47030438  0.99510575    -0.51200
O1323       O  0.46488654  0.46496295  0.89428967    -0.74400
O1324       O  0.45346628  0.41519468  0.97013653    -0.81200
O1325       O  0.36833885  0.50384697  0.93974500    -0.83000
O1326       O  0.44987558  0.37152041  0.94171143    -0.78600
O1327       O  0.40153580  0.48237330  0.98188858    -0.90200
O1328       O  0.46369784  0.44957182  0.81807577    -0.76200
O1329       O  0.43281363  0.41456894  0.87142814    -0.85700
O1330       O  0.40610262  0.46878706  0.86296040    -0.85400
O1331       O  0.40280253  0.40363113  0.95711757    -0.72100
O1332       O  0.37629057  0.45134414  0.94622659    -0.84300
Zr1333     Zr  0.34280857  0.39936304  0.84225351     2.26400
Zr1334     Zr  0.40933466  0.37220233  0.89147675     2.06300
Zr1335     Zr  0.35768116  0.47209699  0.87609622     2.10000
Zr1336     Zr  0.41530750  0.43590118  0.80196677     1.78800
O1337       O  0.33543959  0.51652029  0.88626590    -0.93100
O1338       O  0.44213385  0.40459844  0.75333060    -0.40900
O1339       O  0.36637732  0.44028428  0.81380495    -0.77500
O1340       O  0.39046385  0.39359737  0.82162299    -0.96200
O1341       O  0.36281463  0.37877132  0.91033700    -0.89500
O1342       O  0.33549117  0.43070440  0.90574342    -0.92300
C1343       C  0.47654151  0.46022668  0.85401188     1.01400
C1344       C  0.38276656  0.50064674  0.97724997     1.14300
C1345       C  0.46066999  0.38995822  0.96866723     1.05100
O1346       O  0.43998478  0.35228301  0.83275683    -0.94500
O1347       O  0.38041235  0.33371289  0.86197280    -0.90200
O1348       O  0.34530139  0.35240554  0.82017834    -0.83400
C1349       C  0.35882110  0.33200790  0.83590152     1.11800
O1350       O  0.37008394  0.42820656  0.05077468    -0.96500
Zr1351     Zr  0.35581953  0.40969343  0.97386598     1.88900
O1352       O  0.31177202  0.36818210  0.88897622    -0.73100
O1353       O  0.41028435  0.33098403  0.94219727    -0.52400
O1354       O  0.36702498  0.37309836  0.03067521    -0.97100
O1355       O  0.31676166  0.43117542  0.01216252    -0.54300
O1356       O  0.32182609  0.37385275  0.96764856    -0.73600
C1357       C  0.30909641  0.36181364  0.93383820     0.98700
O1358       O  0.32622125  0.39354789  0.76077473    -0.62500
O1359       O  0.36837742  0.49608520  0.80130436    -0.57300
O1360       O  0.30149254  0.42526626  0.82871365    -0.93900
O1361       O  0.30930431  0.46864689  0.85635247    -0.92400
O1362       O  0.42072874  0.47982465  0.75967903    -0.92700
O1363       O  0.39986389  0.43473274  0.71929581    -0.91500
C1364       C  0.29364240  0.44962044  0.83965401     1.17600
H1365       H  0.41464470  0.48655198  0.85694318     0.33500
H1366       H  0.39186592  0.38110333  0.79493486     0.44300
H1367       H  0.31661152  0.43278392  0.91424942     0.37900
H1368       H  0.40995199  0.39625794  0.98662035     0.34400
H1369       H  0.45240972  0.41684377  0.73102318     0.26100
H1370       H  0.42864901  0.32307645  0.93817324     0.32100
H1371       H  0.35061566  0.37086378  0.05106439     0.38000
H1372       H  0.44000534  0.48035947  0.74925820     0.32400
H1373       H  0.35085563  0.49686579  0.78397828     0.31300
H1374       H  0.32639480  0.52050644  0.85541030     0.33000
H1375       H  0.30066790  0.42491221  0.99384286     0.32000
H1376       H  0.38543453  0.42030401  0.71906511     0.36000
H1377       H  0.32636317  0.41243603  0.74687810     0.28700
H1378       H  0.46904687  0.46672434  0.98801209     0.32900
H1379       H  0.35575118  0.42256947  0.07395524     0.35800
H1380       H  0.37224625  0.51544113  0.81051477     0.28400
H1381       H  0.34111725  0.38408666  0.74369008     0.41300
H1382       H  0.44519789  0.33427139  0.84683474     0.31300
H1383       H  0.45613159  0.39737288  0.77539021     0.38900
H1384       H  0.31869825  0.45109472  0.00434961     0.30800
H1385       H  0.40987185  0.33796386  0.97541434     0.30900
H1386       H  0.44579769  0.45955977  0.02472334     0.31100
Zr1387     Zr  0.08145835  0.48084346  0.86058482     2.17500
O1388       O  0.04333324  0.49598387  0.81171221    -0.51200
O1389       O  0.06224835  0.51378110  0.91553197    -0.74400
O1390       O  0.04424954  0.45167324  0.88813693    -0.81200
O1391       O  0.13768947  0.52196262  0.79552838    -0.83000
O1392       O  0.05090873  0.40762914  0.87075458    -0.78600
O1393       O  0.09320275  0.50862197  0.78979887    -0.90200
O1394       O  0.06701651  0.49233751  0.98642443    -0.76200
O1395       O  0.08234116  0.45247261  0.93056704    -0.85700
O1396       O  0.11527277  0.50340869  0.90762836    -0.85400
O1397       O  0.09255198  0.43452694  0.83550355    -0.72100
O1398       O  0.12333752  0.47690227  0.81953787    -0.84300
Zr1399     Zr  0.17039840  0.42528999  0.90658338     2.26400
Zr1400     Zr  0.09551672  0.40661012  0.90782642     2.06300
Zr1401     Zr  0.15763413  0.49869548  0.86507919     2.10000
Zr1402     Zr  0.11505308  0.47515459  0.97802628     1.78800
O1403       O  0.18294956  0.53728555  0.82920189    -0.93100
O1404       O  0.09774865  0.44995061  0.04768374    -0.40900
O1405       O  0.15857472  0.47084824  0.93582004    -0.77500
O1406       O  0.12952336  0.42933187  0.95500890    -0.96200
O1407       O  0.13580202  0.40442987  0.85986962    -0.89500
O1408       O  0.16846382  0.45321214  0.83662150    -0.92300
C1409       C  0.05331689  0.50783396  0.95746573     1.01400
C1410       C  0.11465989  0.52129518  0.77384101     1.14300
C1411       C  0.03721287  0.42983142  0.86661025     1.05100
O1412       O  0.06514648  0.39584578  0.97454888    -0.94500
O1413       O  0.12041305  0.37197074  0.95523876    -0.90200
O1414       O  0.16568152  0.38218978  0.94967171    -0.83400
C1415       C  0.14564450  0.36744458  0.96478173     1.11800
O1416       O  0.10714857  0.44894136  0.72158709    -0.96500
Zr1417     Zr  0.13339128  0.43278755  0.79000225     1.88900
O1418       O  0.18799869  0.39111030  0.84726668    -0.73100
O1419       O  0.08856634  0.36099252  0.87342618    -0.52400
O1420       O  0.10965738  0.39483391  0.75066792    -0.97100
O1421       O  0.16310098  0.45351833  0.72906968    -0.54300
O1422       O  0.16598917  0.39736801  0.77668646    -0.73600
C1423       C  0.18327829  0.38506602  0.80286190     0.98700
O1424       O  0.20219353  0.41916319  0.97279879    -0.62500
O1425       O  0.16273357  0.53160155  0.93014850    -0.57300
O1426       O  0.21410047  0.44714729  0.88934277    -0.93900
O1427       O  0.20667823  0.49110041  0.86338769    -0.92400
O1428       O  0.12337622  0.52209601  0.00572429    -0.92700
O1429       O  0.14283324  0.47653922  0.04996735    -0.91500
C1430       C  0.22228450  0.47074919  0.87322788     1.17600
H1431       H  0.11123110  0.52257055  0.91360526     0.33500
H1432       H  0.13206583  0.41948201  0.98478722     0.44300
H1433       H  0.18486031  0.45264988  0.81760666     0.37900
H1434       H  0.07940241  0.42791515  0.81300875     0.34400
H1435       H  0.08682291  0.46359348  0.06545180     0.26100
H1436       H  0.07407898  0.35230891  0.89332464     0.32100
H1437       H  0.11438820  0.37816657  0.76952552     0.38000
H1438       H  0.10840205  0.52566723  0.02858593     0.32400
H1439       H  0.18265067  0.53400462  0.93380602     0.31300
H1440       H  0.17283088  0.55417786  0.83761392     0.33000
H1441       H  0.18056766  0.44359310  0.73148056     0.32000
H1442       H  0.16120364  0.47111366  0.03908478     0.36000
H1443       H  0.21057640  0.43758304  0.97794187     0.28700
H1444       H  0.02685533  0.49265367  0.83149676     0.32900
H1445       H  0.11578892  0.44063481  0.69311224     0.35800
H1446       H  0.15638942  0.54951943  0.91729562     0.28400
H1447       H  0.19060479  0.41635625  0.00154388     0.41300
H1448       H  0.05265340  0.38141455  0.96220577     0.31300
H1449       H  0.08413823  0.43686050  0.03457872     0.38900
H1450       H  0.16720211  0.47236269  0.74079898     0.30800
H1451       H  0.07988367  0.36440694  0.84205170     0.30900
H1452       H  0.04206569  0.48240672  0.78549051     0.31100
Zr1453     Zr  0.24953682  0.25981381  0.72488856     2.17500
O1454       O  0.21421424  0.25953530  0.78651951    -0.51200
O1455       O  0.28835003  0.27721328  0.77187286    -0.74400
O1456       O  0.25900563  0.22532468  0.78442869    -0.81200
O1457       O  0.21329855  0.32248138  0.67792187    -0.83000
O1458       O  0.28723035  0.19368679  0.75118221    -0.78600
O1459       O  0.22760776  0.30231172  0.74727914    -0.90200
O1460       O  0.32285967  0.28698828  0.71984160    -0.76200
O1461       O  0.29314598  0.24709527  0.69674279    -0.85700
O1462       O  0.26250045  0.29466738  0.66843967    -0.85400
O1463       O  0.24281909  0.21462389  0.69094242    -0.72100
O1464       O  0.21480404  0.25797384  0.66408651    -0.84300
Zr1465     Zr  0.26744656  0.23672464  0.54415317     2.26400
Zr1466     Zr  0.28728435  0.20234157  0.66348520     2.06300
Zr1467     Zr  0.22776069  0.29370195  0.60836640     2.10000
Zr1468     Zr  0.30590287  0.28152675  0.63973603     1.78800
O1469       O  0.17867108  0.29778343  0.60001274    -0.93100
O1470       O  0.35306587  0.26671851  0.63453082    -0.40900
O1471       O  0.27202386  0.28180937  0.57841958    -0.77500
O1472       O  0.30148692  0.23685289  0.60547583    -0.96200
O1473       O  0.25487769  0.20114654  0.59954080    -0.89500
O1474       O  0.22337495  0.24899583  0.57202395    -0.92300
C1475       C  0.31300237  0.28467464  0.76205750     1.01400
C1476       C  0.21590393  0.32174873  0.72413337     1.14300
C1477       C  0.27429338  0.20416489  0.78697132     1.05100
O1478       O  0.33352456  0.19224231  0.68881681    -0.94500
O1479       O  0.31122880  0.17965097  0.59813212    -0.90200
O1480       O  0.29868400  0.19974058  0.52745035    -0.83400
C1481       C  0.31212161  0.18224641  0.55230646     1.11800
O1482       O  0.17690031  0.20324310  0.68790842    -0.96500
Zr1483     Zr  0.21089808  0.21322509  0.62619733     1.88900
O1484       O  0.23976331  0.20466585  0.49771989    -0.73100
O1485       O  0.27249404  0.15441370  0.67270548    -0.52400
O1486       O  0.21111091  0.16414017  0.64639537    -0.97100
O1487       O  0.16478083  0.22314534  0.59980983    -0.54300
O1488       O  0.20617342  0.18994474  0.54819571    -0.73600
C1489       C  0.21860663  0.18989211  0.50743604     0.98700
O1490       O  0.29950551  0.25150959  0.48183134    -0.62500
O1491       O  0.23708308  0.34136160  0.58450669    -0.57300
O1492       O  0.24883361  0.26725090  0.48426048    -0.93900
O1493       O  0.22325538  0.30028183  0.52040330    -0.92400
O1494       O  0.30895911  0.33152122  0.64904874    -0.92700
O1495       O  0.33271208  0.30214410  0.57499276    -0.91500
C1496       C  0.23322594  0.28832817  0.48301194     1.17600
H1497       H  0.26417010  0.31256625  0.68319342     0.33500
H1498       H  0.31898211  0.23230681  0.59202475     0.44300
H1499       H  0.21045184  0.24942138  0.54608960     0.37900
H1500       H  0.23644892  0.20162774  0.71496130     0.34400
H1501       H  0.36373001  0.28168865  0.64981459     0.26100
H1502       H  0.28806288  0.14506655  0.68804503     0.32100
H1503       H  0.19689535  0.15574785  0.62594964     0.38000
H1504       H  0.32756434  0.33499840  0.66123075     0.32400
H1505       H  0.21997198  0.35127134  0.59121371     0.31300
H1506       H  0.17525719  0.31789542  0.60122545     0.33000
H1507       H  0.16628355  0.22663676  0.56494499     0.32000
H1508       H  0.31916226  0.30999914  0.55271380     0.36000
H1509       H  0.30249720  0.27147410  0.48765768     0.28700
H1510       H  0.22384153  0.25879368  0.81757040     0.32900
H1511       H  0.16547394  0.18804359  0.67514900     0.35800
H1512       H  0.25007328  0.34830036  0.60871941     0.28400
H1513       H  0.31715226  0.24309171  0.49017098     0.41300
H1514       H  0.33436758  0.17180809  0.68983811     0.31300
H1515       H  0.35422415  0.25097196  0.65724822     0.38900
H1516       H  0.16073296  0.24144672  0.61357581     0.30800
H1517       H  0.25831375  0.15476485  0.69794473     0.30900
H1518       H  0.20506474  0.24130279  0.78365282     0.31100
Zr1519     Zr  0.23799588  0.22733054  0.22345031     2.17500
O1520       O  0.27389657  0.22796374  0.28354631    -0.51200
O1521       O  0.19912678  0.20924133  0.26971141    -0.74400
O1522       O  0.22909175  0.26118110  0.28351653    -0.81200
O1523       O  0.27361283  0.16437849  0.17802866    -0.83000
O1524       O  0.20601871  0.29672161  0.24924729    -0.78600
O1525       O  0.25863251  0.18418912  0.24687034    -0.90200
O1526       O  0.16521043  0.20006173  0.21684043    -0.76200
O1527       O  0.19519956  0.24214587  0.19443897    -0.85700
O1528       O  0.22392311  0.19327553  0.16756302    -0.85400
O1529       O  0.24690054  0.27232050  0.18904116    -0.72100
O1530       O  0.27313255  0.22783802  0.16315165    -0.84300
Zr1531     Zr  0.22240332  0.25268519  0.04212424     2.26400
Zr1532     Zr  0.20314418  0.28702131  0.16161705     2.06300
Zr1533     Zr  0.25890074  0.19302379  0.10797425     2.10000
Zr1534     Zr  0.18168962  0.20859329  0.13702788     1.78800
O1535       O  0.30713874  0.18314761  0.09938880    -0.93100
O1536       O  0.13345532  0.21970006  0.14011491    -0.40900
O1537       O  0.21577437  0.20729292  0.07593820    -0.77500
O1538       O  0.18808056  0.25355097  0.10356969    -0.96200
O1539       O  0.23621771  0.28702312  0.09798478    -0.89500
O1540       O  0.26550271  0.23779351  0.07098118    -0.92300
C1541       C  0.17478917  0.20145471  0.25914041     1.01400
C1542       C  0.27074165  0.16496072  0.22421528     1.14300
C1543       C  0.21714441  0.28447253  0.28552001     1.05100
O1544       O  0.15648022  0.29363915  0.18850392    -0.94500
O1545       O  0.18074140  0.31156248  0.09535211    -0.90200
O1546       O  0.19206354  0.29073757  0.02497762    -0.83400
C1547       C  0.17957757  0.30905978  0.04945251     1.11800
O1548       O  0.31690097  0.27812903  0.18093755    -0.96500
Zr1549     Zr  0.27944676  0.27247889  0.12476016     1.88900
O1550       O  0.25054983  0.28568769  0.99755845    -0.73100
O1551       O  0.21615544  0.33540289  0.17051963    -0.52400
O1552       O  0.28374495  0.32002102  0.15223342    -0.97100
O1553       O  0.32392405  0.25932829  0.09376703    -0.54300
O1554       O  0.28408956  0.29849306  0.04881856    -0.73600
C1555       C  0.27165612  0.30009582  0.00836529     0.98700
O1556       O  0.18984607  0.24178940  0.97904008    -0.62500
O1557       O  0.24395705  0.14606336  0.09033191    -0.57300
O1558       O  0.24291812  0.22253295  0.98321689    -0.93900
O1559       O  0.26511885  0.18726467  0.02085046    -0.92400
O1560       O  0.17875703  0.15823817  0.13652563    -0.92700
O1561       O  0.15434859  0.19693261  0.06735433    -0.91500
C1562       C  0.25752883  0.20064525  0.98309515     1.17600
H1563       H  0.22152504  0.17539045  0.18260996     0.33500
H1564       H  0.17077078  0.25886064  0.09030787     0.44300
H1565       H  0.27870162  0.23703281  0.04539195     0.37900
H1566       H  0.25381975  0.28478645  0.21301440     0.34400
H1567       H  0.12445842  0.20305516  0.15397808     0.26100
H1568       H  0.23084244  0.33533867  0.19468428     0.32100
H1569       H  0.28095657  0.33164344  0.12340027     0.38000
H1570       H  0.17399493  0.15281014  0.16976764     0.32400
H1571       H  0.22837677  0.14830906  0.06832473     0.31300
H1572       H  0.31326642  0.19468124  0.07192248     0.33000
H1573       H  0.32173545  0.25758266  0.05872048     0.32000
H1574       H  0.16472981  0.18243956  0.05064367     0.36000
H1575       H  0.19142147  0.22165829  0.97377722     0.28700
H1576       H  0.26454965  0.22582487  0.31483437     0.32900
H1577       H  0.32894815  0.29258179  0.16680746     0.35800
H1578       H  0.25862364  0.13834792  0.07021976     0.28400
H1579       H  0.17174598  0.24375108  0.99426538     0.41300
H1580       H  0.15724618  0.31034807  0.20871209     0.31300
H1581       H  0.13195009  0.23388956  0.16531565     0.38900
H1582       H  0.32651927  0.24017425  0.10542011     0.30800
H1583       H  0.22552746  0.34028717  0.14014926     0.30900
H1584       H  0.28108672  0.24715696  0.28326477     0.31100
C1585       C  0.24402505  0.30304826  0.35250428    -0.13200
C1586       C  0.21814621  0.29729528  0.33354681     0.08900
C1587       C  0.19603321  0.29454628  0.36543363    -0.13200
C1588       C  0.20023135  0.29520169  0.41536966    -0.13200
C1589       C  0.22664471  0.29828879  0.43402106     0.08900
C1590       C  0.24824337  0.30339261  0.40199913    -0.13200
H1591       H  0.26157792  0.30431066  0.32896172     0.12900
H1592       H  0.17608337  0.28904437  0.35196976     0.12900
H1593       H  0.18336198  0.29038859  0.43914506     0.12900
H1594       H  0.26888437  0.30513818  0.41524558     0.12900
C1595       C  0.25343349  0.17860556  0.85491653    -0.13200
C1596       C  0.27638158  0.19224241  0.83552313     0.08900
C1597       C  0.29576338  0.20342818  0.86691140    -0.13200
C1598       C  0.29107625  0.20314759  0.91648782    -0.13200
C1599       C  0.26692585  0.19171245  0.93543682     0.08900
C1600       C  0.24868050  0.17843826  0.90445361    -0.13200
H1601       H  0.23769958  0.17078236  0.83141939     0.12900
H1602       H  0.31298399  0.21509173  0.85284427     0.12900
H1603       H  0.30498172  0.21429755  0.93953360     0.12900
H1604       H  0.22956481  0.17022084  0.91808522     0.12900
C1605       C  0.19728027  0.36258694  0.77910856    -0.13200
C1606       C  0.20570038  0.34438789  0.75310850    -0.14700
C1607       C  0.15271967  0.34503379  0.99639764    -0.13200
C1608       C  0.16338568  0.32834484  0.02254475    -0.14700
C1609       C  0.34733088  0.30597297  0.82229844    -0.13200
C1610       C  0.33124945  0.29228894  0.79987734    -0.14700
C1611       C  0.26411115  0.45416196  0.83782894    -0.16300
C1612       C  0.25156150  0.47381019  0.86322329    -0.31500
H1613       H  0.25181243  0.43794501  0.82160844     0.12700
H1614       H  0.26292389  0.49057359  0.87968225     0.13300
C1615       C  0.29213009  0.33864992  0.94935434    -0.13200
C1616       C  0.28182700  0.32014207  0.97327908    -0.14700
C1617       C  0.20826588  0.17140725  0.47042049    -0.13200
C1618       C  0.19765764  0.15381666  0.44531676    -0.14700
C1619       C  0.15666350  0.19199889  0.29606957    -0.13200
C1620       C  0.14058165  0.17722117  0.31668877    -0.14700
C1621       C  0.32910185  0.16394240  0.52607112    -0.13200
C1622       C  0.34015688  0.14750800  0.50072786    -0.14700
C1623       C  0.22963672  0.03741283  0.35211886    -0.16300
C1624       C  0.24314838  0.01698773  0.37457772    -0.31500
H1625       H  0.24128558  0.05464186  0.33700740     0.12700
H1626       H  0.23250199  0.99893428  0.38880569     0.13300
C1627       C  0.29160917  0.12553102  0.28067626    -0.13200
C1628       C  0.28177007  0.14277633  0.25387631    -0.14700
C1629       C  0.79268844  0.28846976  0.19319593    -0.13200
C1630       C  0.80114373  0.26385385  0.17191723     0.08900
C1631       C  0.81063920  0.24227010  0.20115245    -0.13200
C1632       C  0.80932045  0.24429981  0.25107346    -0.13200
C1633       C  0.79764894  0.26758805  0.27220857     0.08900
C1634       C  0.79064029  0.29020588  0.24302980    -0.13200
H1635       H  0.78474037  0.30510742  0.17135514     0.12900
H1636       H  0.81675987  0.22291009  0.18535798     0.12900
H1637       H  0.81453322  0.22649100  0.27277237     0.12900
H1638       H  0.78143671  0.30831299  0.25860581     0.12900
C1639       C  0.69702843  0.20341668  0.74328081    -0.13200
C1640       C  0.69383311  0.22570644  0.77444855     0.08900
C1641       C  0.68562907  0.25135398  0.75573846    -0.13200
C1642       C  0.68338558  0.25539257  0.70620158    -0.13200
C1643       C  0.68986293  0.23396895  0.67479838     0.08900
C1644       C  0.69526195  0.20757779  0.69373564    -0.13200
H1645       H  0.70408441  0.18371299  0.75678199     0.12900
H1646       H  0.68373935  0.26899904  0.77911480     0.12900
H1647       H  0.67996498  0.27605881  0.69246200     0.12900
H1648       H  0.70102458  0.19094979  0.67012270     0.12900
C1649       C  0.02243265  0.42726942  0.78450372    -0.16300
C1650       C  0.01621000  0.43217888  0.83039226    -0.31500
H1651       H  0.04154901  0.41779965  0.77482171     0.12700
H1652       H  0.99698874  0.44158326  0.84007531     0.13300
C1653       C  0.84630524  0.29558873  0.85921377    -0.13200
C1654       C  0.86156782  0.30671192  0.83061569    -0.14700
C1655       C  0.80759167  0.34108366  0.66101146    -0.13200
C1656       C  0.79042574  0.32652807  0.64351010    -0.14700
C1657       C  0.03178741  0.10325616  0.55856311    -0.16300
C1658       C  0.02124377  0.11260033  0.51716515    -0.31500
H1659       H  0.04564207  0.08588582  0.55922755     0.12700
H1660       H  0.00770746  0.13020409  0.51578359     0.13300
C1661       C  0.81970830  0.17935472  0.80702977    -0.13200
C1662       C  0.83674087  0.16816728  0.78327252    -0.14700
C1663       C  0.96407102  0.27612632  0.72181808    -0.16300
C1664       C  0.97584375  0.25887825  0.69042984    -0.31500
H1665       H  0.95367578  0.26734580  0.75286452     0.12700
H1666       H  0.98588669  0.26710834  0.65862331     0.13300
C1667       C  0.85309459  0.23406728  0.57792630    -0.13200
C1668       C  0.87080958  0.22480275  0.60339745    -0.14700
C1669       C  0.47375319  0.09897925  0.29422739    -0.16300
C1670       C  0.48012533  0.08422561  0.33358664    -0.31500
H1671       H  0.45383011  0.10820825  0.28976663     0.12700
H1672       H  0.49988695  0.07448128  0.33680780     0.13300
C1673       C  0.68091418  0.19549234  0.30340293    -0.13200
C1674       C  0.66520956  0.18478919  0.27505539    -0.14700
C1675       C  0.70321038  0.13236153  0.05923213    -0.13200
C1676       C  0.69020409  0.11600502  0.08254233    -0.14700
C1677       C  0.49063646  0.40120540  0.03435679    -0.16300
C1678       C  0.48091279  0.38187587  0.00422736    -0.31500
H1679       H  0.48690279  0.42303098  0.02818235     0.12700
H1680       H  0.48517979  0.36008191  0.00957592     0.13300
C1681       C  0.63445617  0.33927988  0.37769642    -0.13200
C1682       C  0.64931271  0.32522211  0.40108537    -0.14700
C1683       C  0.54406540  0.24645613  0.16979325    -0.16300
C1684       C  0.56710954  0.23173672  0.16595995    -0.31500
H1685       H  0.52432456  0.23667044  0.16461496     0.12700
H1686       H  0.58657781  0.24255510  0.16807308     0.13300
C1687       C  0.67005855  0.27719704  0.13302066    -0.13200
C1688       C  0.65263042  0.28792210  0.15777273    -0.14700
C1689       C  0.78068971  0.69359613  0.48573321    -0.13200
C1690       C  0.75489846  0.68352684  0.50001049     0.08900
C1691       C  0.73947713  0.66830476  0.46711476    -0.13200
C1692       C  0.74820689  0.66645494  0.41919417    -0.13200
C1693       C  0.77242259  0.67969127  0.40365564     0.08900
C1694       C  0.78938113  0.69165708  0.43813864    -0.13200
H1695       H  0.79302519  0.70540580  0.51048203     0.12900
H1696       H  0.71946344  0.66056147  0.47696117     0.12900
H1697       H  0.73432468  0.65785275  0.39308191     0.12900
H1698       H  0.80764536  0.70276374  0.42718061     0.12900
C1699       C  0.70188104  0.78179005  0.93218390    -0.13200
C1700       C  0.72497321  0.78776924  0.90386018     0.08900
C1701       C  0.74881412  0.79699133  0.92647137    -0.13200
C1702       C  0.75044942  0.79692125  0.97664306    -0.13200
C1703       C  0.72807007  0.78837028  0.00492941     0.08900
C1704       C  0.70331669  0.78241205  0.98226673    -0.13200
H1705       H  0.68330983  0.77444471  0.91558177     0.12900
H1706       H  0.76699137  0.80136525  0.90560136     0.12900
H1707       H  0.76990160  0.80118550  0.99329718     0.12900
H1708       H  0.68596996  0.77521652  0.00307059     0.12900
C1709       C  0.00741541  0.51316965  0.00426186    -0.16300
C1710       C  0.02541249  0.51913354  0.96821093    -0.31500
H1711       H  0.01361085  0.50114346  0.03521957     0.12700
H1712       H  0.01780184  0.53225787  0.93955100     0.13300
C1713       C  0.88434171  0.47912061  0.81824683    -0.16300
C1714       C  0.88340130  0.49334429  0.77694876    -0.31500
H1715       H  0.87791692  0.45763704  0.82018707     0.12700
H1716       H  0.89027888  0.51471162  0.77497034     0.13300
C1717       C  0.79964358  0.65048295  0.88585231    -0.13200
C1718       C  0.78762793  0.66733301  0.86098604    -0.14700
C1719       C  0.86623407  0.66895221  0.07729142    -0.13200
C1720       C  0.85004161  0.67871128  0.10441824    -0.14700
C1721       C  0.52295109  0.46753092  0.88940497    -0.16300
C1722       C  0.50675357  0.46720453  0.84983217    -0.31500
H1723       H  0.51318534  0.46186895  0.92310221     0.12700
H1724       H  0.51564514  0.47113544  0.81480031     0.13300
C1725       C  0.60482601  0.47527313  0.16055553    -0.16300
C1726       C  0.62005206  0.46179466  0.12833216    -0.31500
H1727       H  0.59465435  0.49421661  0.15008254     0.12700
H1728       H  0.63004686  0.44264639  0.13792598     0.13300
C1729       C  0.65397093  0.62263552  0.80520828    -0.13200
C1730       C  0.66590185  0.63729391  0.77746191    -0.14700
C1731       C  0.75570636  0.51200210  0.96694114    -0.16300
C1732       C  0.76774999  0.53412916  0.98669299    -0.31500
H1733       H  0.76723336  0.49407277  0.95601082     0.12700
H1734       H  0.75514390  0.55122567  0.99829572     0.13300
C1735       C  0.70687378  0.62839971  0.02152834    -0.13200
C1736       C  0.71553607  0.64769662  0.04534103    -0.13900
C1737       C  0.97194991  0.99199417  0.34945174    -0.16300
C1738       C  0.99509312  0.99266757  0.37673391    -0.31500
H1739       H  0.97173572  0.00185495  0.31446243     0.12700
H1740       H  0.99364744  0.98177771  0.41085237     0.13300
C1741       C  0.89229907  0.03741349  0.59472628    -0.16300
C1742       C  0.90240206  0.03698600  0.55020052    -0.31500
H1743       H  0.87391168  0.02601340  0.60451538     0.12700
H1744       H  0.92079882  0.04852763  0.54087210     0.13300
C1745       C  0.77056795  0.84635398  0.60130380    -0.13200
C1746       C  0.78186841  0.86330580  0.57581939    -0.14700
C1747       C  0.82392394  0.81892051  0.38969562    -0.13200
C1748       C  0.81173968  0.80209613  0.36633165    -0.14700
C1749       C  0.48608471  0.96718532  0.51318480    -0.16300
C1750       C  0.46749787  0.96622407  0.47662903    -0.31500
H1751       H  0.48183644  0.97886980  0.54529823     0.12700
H1752       H  0.47350154  0.95358363  0.44640772     0.13300
C1753       C  0.60660688  0.01703247  0.31626040    -0.16300
C1754       C  0.59042294  0.02218447  0.35404944    -0.31500
H1755       H  0.62462111  0.00432341  0.31964240     0.12700
H1756       H  0.57227316  0.03465717  0.35033886     0.13300
C1757       C  0.65575084  0.78374955  0.52662664    -0.13200
C1758       C  0.64133546  0.79941694  0.50438324    -0.14700
C1759       C  0.72846142  0.94781130  0.49735850    -0.16300
C1760       C  0.74253595  0.96630417  0.47056684    -0.31500
H1761       H  0.73968495  0.93125458  0.51469202     0.12700
H1762       H  0.73239178  0.98317254  0.45230990     0.13300
C1763       C  0.68773768  0.84284781  0.35170945    -0.13200
C1764       C  0.69498039  0.82541317  0.32335803    -0.14700
C1765       C  0.18191090  0.74369023  0.09845058    -0.13200
C1766       C  0.19210459  0.76779583  0.07605962     0.08900
C1767       C  0.19898469  0.79059688  0.10429881    -0.13200
C1768       C  0.19879608  0.78822445  0.15420705    -0.13200
C1769       C  0.19135282  0.76314570  0.17664848     0.08900
C1770       C  0.18126169  0.74146745  0.14856158    -0.13200
H1771       H  0.17713193  0.72563350  0.07727631     0.12900
H1772       H  0.20759998  0.80907669  0.08788383     0.12900
H1773       H  0.20716013  0.80502562  0.17514163     0.12900
H1774       H  0.17601850  0.72176608  0.16496880     0.12900
C1775       C  0.31308597  0.76214437  0.64912748    -0.13200
C1776       C  0.30517259  0.73931182  0.67756233     0.08900
C1777       C  0.29858749  0.71429480  0.65525224    -0.13200
C1778       C  0.29689100  0.71304026  0.60535575    -0.13200
C1779       C  0.30240892  0.73658212  0.57705521     0.08900
C1780       C  0.31210448  0.76066767  0.59910363    -0.13200
H1781       H  0.31764301  0.78182350  0.66567105     0.12900
H1782       H  0.29170513  0.69668999  0.67637333     0.12900
H1783       H  0.28900424  0.69437825  0.58904570     0.12900
H1784       H  0.31596113  0.77920696  0.57808353     0.12900
C1785       C  0.96946003  0.52865267  0.60052372    -0.16300
C1786       C  0.97555239  0.50221508  0.58728921    -0.31500
H1787       H  0.95096688  0.53151603  0.62123717     0.12700
H1788       H  0.99397063  0.49857532  0.56682934     0.13300
C1789       C  0.98682638  0.61434499  0.84943885    -0.16300
C1790       C  0.98728374  0.59925542  0.80916689    -0.31500
H1791       H  0.99604090  0.63481907  0.85087482     0.12700
H1792       H  0.97743055  0.57908584  0.80783145     0.13300
C1793       C  0.11346507  0.53383110  0.72610518    -0.16300
C1794       C  0.09886024  0.52186936  0.69126359    -0.31500
H1795       H  0.12363030  0.55359674  0.72013298     0.12700
H1796       H  0.08835449  0.50236917  0.69821946     0.13300
C1797       C  0.15556078  0.71009408  0.68194116    -0.13200
C1798       C  0.17388213  0.71942077  0.70607909    -0.14700
C1799       C  0.15483550  0.67223603  0.45127225    -0.13200
C1800       C  0.13994036  0.65710254  0.47338911    -0.14700
C1801       C  0.99946601  0.99435089  0.73912634    -0.16300
C1802       C  0.00678286  0.01874961  0.76019423    -0.31500
H1803       H  0.98111777  0.99460594  0.71754284     0.12700
H1804       H  0.02527505  0.01973337  0.78125887     0.13300
C1805       C  0.11990535  0.99306158  0.56179201    -0.16300
C1806       C  0.10945465  0.00598668  0.59989006    -0.31500
H1807       H  0.13209128  0.97457429  0.56588587     0.12700
H1808       H  0.09668014  0.02401241  0.59538473     0.13300
C1809       C  0.99177477  0.91762014  0.52585574    -0.16300
C1810       C  0.97948048  0.89695999  0.50227378    -0.31500
H1811       H  0.98680680  0.93902607  0.51836892     0.12700
H1812       H  0.98420383  0.87550052  0.51005312     0.13300
C1813       C  0.20209222  0.86113019  0.80105758    -0.13200
C1814       C  0.18932762  0.87869000  0.78153688    -0.14700
C1815       C  0.06773327  0.77089178  0.66128771    -0.16300
C1816       C  0.04491995  0.75512641  0.66403479    -0.31500
H1817       H  0.08711403  0.76059823  0.65642325     0.12700
H1818       H  0.02554217  0.76439756  0.67296776     0.13300
C1819       C  0.17342005  0.82002056  0.57888571    -0.13200
C1820       C  0.18832259  0.80808948  0.55090526    -0.14700
C1821       C  0.51515250  0.88459464  0.32723315    -0.16300
C1822       C  0.52331888  0.89829441  0.28760799    -0.31500
H1823       H  0.50166453  0.86667225  0.32572617     0.12700
H1824       H  0.53712905  0.91593161  0.28908601     0.13300
C1825       C  0.38243063  0.95619191  0.24341753    -0.16300
C1826       C  0.39611502  0.96804049  0.20689953    -0.31500
H1827       H  0.37302455  0.93586597  0.24004896     0.12700
H1828       H  0.40595928  0.98811129  0.21088709     0.13300
C1829       C  0.51459003  0.97399560  0.07731304    -0.16300
C1830       C  0.50793437  0.99816863  0.09968654    -0.31500
H1831       H  0.53314087  0.97274840  0.05628897     0.12700
H1832       H  0.48920090  0.99775511  0.12049854     0.13300
C1833       C  0.37164482  0.77063388  0.23800579    -0.13200
C1834       C  0.35483263  0.76160747  0.26600424    -0.14700
C1835       C  0.31296497  0.80998851  0.04730582    -0.13200
C1836       C  0.33119063  0.82272965  0.06521534    -0.14700
C1837       C  0.47341759  0.49626707  0.24892554    -0.16300
C1838       C  0.46767453  0.46898161  0.24042240    -0.31500
H1839       H  0.49279208  0.50162602  0.26513139     0.12700
H1840       H  0.44797243  0.46378936  0.22530748     0.13300
C1841       C  0.51067910  0.55458208  0.04371857    -0.16300
C1842       C  0.51768603  0.56839115  0.00346498    -0.31500
H1843       H  0.51869344  0.53439404  0.05226047     0.12700
H1844       H  0.50895261  0.58836136  0.99484697     0.13300
C1845       C  0.37509522  0.51655612  0.01922556    -0.16300
C1846       C  0.37272062  0.50398515  0.06205863    -0.31500
H1847       H  0.37131596  0.53852780  0.01514507     0.12700
H1848       H  0.37708171  0.48211293  0.06561018     0.13300
C1849       C  0.30368638  0.65770484  0.18977158    -0.13200
C1850       C  0.28771459  0.67308741  0.20780920    -0.14700
C1851       C  0.46198086  0.72139774  0.13259072    -0.16300
C1852       C  0.46284777  0.74091426  0.16687251    -0.31500
H1853       H  0.46583618  0.72728233  0.09556927     0.12700
H1854       H  0.46057370  0.73489210  0.20421236     0.13300
C1855       C  0.36060288  0.69600558  0.02225715    -0.13200
C1856       C  0.34566607  0.70647255  0.99298531    -0.14700
loop_ 
_geom_bond_atom_site_label_1 
_geom_bond_atom_site_label_2 
_geom_bond_distance 
_geom_bond_site_symmetry_2 
_ccdc_geom_bond_type 
Zr1           O2   2.436       .  S
Zr1           O3   2.423       .  S
Zr1           O4   2.401       .  S
Zr1           O7   2.411       .  S
Zr1           O9   2.382       .  S
Zr1          O10   2.382       .  S
Zr1          O11   2.412       .  S
Zr1          O12   2.395       .  S
O2           H58   0.990       .  S
O2           H66   0.990       .  S
O3           C23   1.280       .  A
O4           C25   1.277       .  A
O5          Zr15   2.448       .  S
O5           C24   1.283       .  A
O6          Zr14   2.409       .  S
O6           C25   1.280       .  A
O7           C24   1.268       .  A
O8          Zr16   2.531       .  S
O8           C23   1.302       .  A
O9          Zr14   2.406       .  S
O9          Zr16   2.363       .  S
O10         Zr15   2.410       .  S
O10         Zr16   2.362       .  S
O10          H45   0.966       .  S
O11         Zr14   2.419       .  S
O11         Zr31   2.352       .  S
O11          H48   0.963       .  S
O12         Zr15   2.390       .  S
O12         Zr31   2.362       .  S
Zr13         O38   2.441       .  S
Zr13         O32   2.495       .  S
Zr13         O40   2.391       .  S
Zr13         O28   2.425       .  S
Zr13         O19   2.430       .  S
Zr13         O20   2.421       .  S
Zr13         O21   2.367       .  S
Zr13         O22   2.377       .  S
Zr14         O33   2.442       .  S
Zr14         O26   2.433       .  S
Zr14         O27   2.467       .  S
Zr14         O20   2.380       .  S
Zr14         O21   2.382       .  S
Zr15         O17   2.439       .  S
Zr15         O39   2.438       .  S
Zr15         O41   2.455       .  S
Zr15         O19   2.397       .  S
Zr15         O22   2.394       .  S
Zr16         O42   2.435       .  S
Zr16         O43   2.436       .  S
Zr16         O18   2.437       .  S
Zr16         O19   2.444       .  S
Zr16         O20   2.438       .  S
O17          H54   0.990       .  S
O18          H49   0.990       .  S
O18          H63   0.990       .  S
O20          H46   0.966       .  S
O21         Zr31   2.384       .  S
O22         Zr31   2.369       .  S
O22          H47   0.965       .  S
C23        C1837   1.518       .  S
C24        C1846   1.454       .  S
C25        C1841   1.431       .  S
O26          H62   0.990       .  S
O27          C29   1.288       .  A
O28          C29   1.281       .  A
C29        C1851   1.484       .  S
O30         Zr31   2.438   1_556  S
O30          H59   0.990       .  S
Zr31         O34   2.436   1_554  S
Zr31         O35   2.441       .  S
Zr31         O36   2.374       .  S
O32          C37   1.295       .  A
O33          H50   0.990       .  S
O33          H65   0.990       .  S
O34          H51   0.990       .  S
O35          H55   0.990       .  S
O35          H64   0.990       .  S
O36          C37   1.270       .  A
C37        C1855   1.442       .  S
O38          H57   0.990       .  S
O38          H61   0.990       .  S
O39          H53   0.990       .  S
O39          H60   0.990       .  S
O40          C44   1.275       .  A
O41          C44   1.286       .  A
O42          H52   0.990       .  S
O43          H56   0.990       .  S
C44        C1849   1.424       .  S
Zr67         O68   2.438       .  S
Zr67         O69   2.393       .  S
Zr67         O70   2.406       .  S
Zr67         O73   2.416       .  S
Zr67         O75   2.381       .  S
Zr67         O76   2.378       .  S
Zr67         O77   2.403       .  S
Zr67         O78   2.385       .  S
O68         H124   0.990       .  S
O68         H132   0.990       .  S
O69          C89   1.276       .  A
O70          C91   1.278       .  A
O71         Zr81   2.410       .  S
O71          C90   1.280       .  A
O72         Zr80   2.394       .  S
O72          C91   1.279       .  A
O73          C90   1.272       .  A
O74         Zr82   2.552       .  S
O74          C89   1.306       .  A
O75         Zr80   2.410       .  S
O75         Zr82   2.358       .  S
O76         Zr81   2.404       .  S
O76         Zr82   2.356       .  S
O76         H111   0.966       .  S
O77         Zr80   2.433       .  S
O77         Zr97   2.350       .  S
O77         H114   0.964       .  S
O78         Zr81   2.403       .  S
O78         Zr97   2.364       .  S
Zr79        O104   2.438       .  S
Zr79         O98   2.493       .  S
Zr79        O106   2.388       .  S
Zr79         O94   2.405       .  S
Zr79         O85   2.427       .  S
Zr79         O86   2.421       .  S
Zr79         O87   2.364       .  S
Zr79         O88   2.375       .  S
Zr80         O99   2.441       .  S
Zr80         O92   2.434       .  S
Zr80         O93   2.484       .  S
Zr80         O86   2.377       .  S
Zr80         O87   2.372       .  S
Zr81         O83   2.440       .  S
Zr81        O105   2.437       .  S
Zr81        O107   2.454       .  S
Zr81         O85   2.385       .  S
Zr81         O88   2.394       .  S
Zr82        O108   2.434   1_554  S
Zr82        O109   2.437   1_554  S
Zr82         O84   2.437       .  S
Zr82         O85   2.452       .  S
Zr82         O86   2.447       .  S
O83         H120   0.990       .  S
O84         H115   0.990       .  S
O84         H129   0.990       .  S
O86         H112   0.966       .  S
O87         Zr97   2.381       .  S
O88         Zr97   2.363       .  S
O88         H113   0.964       .  S
C89        C1829   1.525       .  S
C90        C1826   1.444       .  S
C91        C1822   1.430       .  S
O92         H128   0.990       .  S
O93          C95   1.291       .  A
O94          C95   1.276       .  A
C95        C1852   1.487       .  S
O96         Zr97   2.435       .  S
O96         H125   0.990       .  S
Zr97        O100   2.436       .  S
Zr97        O101   2.441       .  S
Zr97        O102   2.370       .  S
O98         C103   1.295       .  A
O99         H116   0.990       .  S
O99         H131   0.990       .  S
O100        H117   0.990       .  S
O101        H121   0.990       .  S
O101        H130   0.990       .  S
O102        C103   1.270       .  A
C103       C1833   1.439       .  S
O104        H123   0.991       .  S
O104        H127   0.990       .  S
O105        H119   0.990       .  S
O105        H126   0.990       .  S
O106        C110   1.274       .  A
O107        C110   1.286       .  A
O108        H118   0.990       .  S
O109        H122   0.990       .  S
C110       C1836   1.418       .  S
Zr133       O134   2.429       .  S
Zr133       O135   2.415       .  S
Zr133       O136   2.411       .  S
Zr133       O139   2.419       .  S
Zr133       O141   2.379       .  S
Zr133       O142   2.381       .  S
Zr133       O143   2.408       .  S
Zr133       O144   2.394       .  S
O134        H190   0.990       .  S
O134        H198   0.990       .  S
O135        C155   1.280       .  A
O136        C157   1.280       .  A
O137       Zr147   2.407       .  S
O137        C156   1.276       .  A
O138       Zr146   2.410       .  S
O138        C157   1.281       .  A
O139        C156   1.269       .  A
O140       Zr148   2.534       .  S
O140        C155   1.301       .  A
O141       Zr146   2.411       .  S
O141       Zr148   2.373       .  S
O142       Zr147   2.395       .  S
O142       Zr148   2.351       .  S
O142        H177   0.965       .  S
O143       Zr146   2.411       .  S
O143       Zr163   2.371       .  S
O143        H180   0.964       .  S
O144       Zr147   2.398       .  S
O144       Zr163   2.372       .  S
Zr145       O170   2.440       .  S
Zr145       O164   2.502       .  S
Zr145       O172   2.386       .  S
Zr145       O160   2.428       .  S
Zr145       O151   2.426       .  S
Zr145       O152   2.422       .  S
Zr145       O153   2.353       .  S
Zr145       O154   2.375       .  S
Zr146       O165   2.439       .  S
Zr146       O158   2.434       .  S
Zr146       O159   2.463       .  S
Zr146       O152   2.385       .  S
Zr146       O153   2.384       .  S
Zr147       O149   2.437       .  S
Zr147       O171   2.438       .  S
Zr147       O173   2.416       .  S
Zr147       O151   2.392       .  S
Zr147       O154   2.403       .  S
Zr148       O174   2.435       .  S
Zr148       O175   2.437       .  S
Zr148       O150   2.438       .  S
Zr148       O151   2.433       .  S
Zr148       O152   2.448       .  S
O149        H186   0.990       .  S
O150        H181   0.990   1_455  S
O150        H195   0.990       .  S
O152        H178   0.966       .  S
O153       Zr163   2.377       .  S
O154       Zr163   2.375       .  S
O154        H179   0.966       .  S
C155       C1801   1.511   1_455  S
C156       C1806   1.442   1_565  S
C157       C1809   1.447   1_455  S
O158        H194   0.990   1_455  S
O159        C161   1.288       .  A
O160        C161   1.283       .  A
C161       C1815   1.486       .  S
O162       Zr163   2.435       .  S
O162        H191   0.990       .  S
Zr163       O166   2.436       .  S
Zr163       O167   2.439       .  S
Zr163       O168   2.399       .  S
O164        C169   1.296       .  A
O165        H182   0.990       .  S
O165        H197   0.990       .  S
O166        H183   0.990       .  S
O167        H187   0.990       .  S
O167        H196   0.990       .  S
O168        C169   1.275       .  A
C169       C1819   1.458       .  S
O170        H189   0.990       .  S
O170        H193   0.990       .  S
O171        H185   0.990       .  S
O171        H192   0.990       .  S
O172        C176   1.276       .  A
O173        C176   1.278       .  A
O174        H184   0.990       .  S
O175        H188   0.990       .  S
C176       C1814   1.409       .  S
Zr199       O200   2.439       .  S
Zr199       O201   2.421       .  S
Zr199       O202   2.399       .  S
Zr199       O205   2.412       .  S
Zr199       O207   2.380       .  S
Zr199       O208   2.379       .  S
Zr199       O209   2.413       .  S
Zr199       O210   2.391       .  S
O200        H256   0.990       .  S
O200        H264   0.990       .  S
O201        C221   1.280   1_455  A
O202        C223   1.279       .  A
O203       Zr213   2.446       .  S
O203        C222   1.284       .  A
O204       Zr212   2.420       .  S
O204        C223   1.280       .  A
O205        C222   1.268       .  A
O206       Zr214   2.529   1_655  S
O206        C221   1.301       .  A
O207       Zr212   2.412       .  S
O207       Zr214   2.370       .  S
O208       Zr213   2.399       .  S
O208       Zr214   2.359       .  S
O208        H243   0.965       .  S
O209       Zr212   2.415       .  S
O209       Zr229   2.376       .  S
O209        H246   0.965       .  S
O210       Zr213   2.387       .  S
O210       Zr229   2.359       .  S
Zr211       O236   2.442       .  S
Zr211       O230   2.485       .  S
Zr211       O238   2.384       .  S
Zr211       O226   2.414       .  S
Zr211       O217   2.420       .  S
Zr211       O218   2.418       .  S
Zr211       O219   2.359       .  S
Zr211       O220   2.376       .  S
Zr212       O231   2.442       .  S
Zr212       O224   2.434   1_455  S
Zr212       O225   2.477       .  S
Zr212       O218   2.385       .  S
Zr212       O219   2.379       .  S
Zr213       O215   2.436       .  S
Zr213       O237   2.438       .  S
Zr213       O239   2.440       .  S
Zr213       O217   2.397       .  S
Zr213       O220   2.399       .  S
Zr214       O240   2.434       .  S
Zr214       O241   2.437       .  S
Zr214       O216   2.438   1_455  S
Zr214       O217   2.427       .  S
Zr214       O218   2.445       .  S
O215        H252   0.990       .  S
O216        H247   0.990       .  S
O216        H261   0.990       .  S
O218        H244   0.966       .  S
O219       Zr229   2.372       .  S
O220       Zr229   2.384       .  S
O220        H245   0.966       .  S
C221       C1785   1.510       .  S
C222       C1794   1.456       .  S
C223       C1790   1.443   1_455  S
O224        H260   0.990       .  S
O225        C227   1.291       .  A
O226        C227   1.281       .  A
C227       C1816   1.493       .  S
O228       Zr229   2.437       .  S
O228        H257   0.990       .  S
Zr229       O232   2.435       .  S
Zr229       O233   2.440       .  S
Zr229       O234   2.381       .  S
O230        C235   1.292       .  A
O231        H248   0.990   1_455  S
O231        H263   0.990       .  S
O232        H249   0.990       .  S
O233        H253   0.990       .  S
O233        H262   0.990       .  S
O234        C235   1.272       .  A
C235       C1797   1.441       .  S
O236        H255   0.990       .  S
O236        H259   0.990       .  S
O237        H251   0.990       .  S
O237        H258   0.990       .  S
O238        C242   1.274       .  A
O239        C242   1.283       .  A
O240        H250   0.990       .  S
O241        H254   0.990       .  S
C242       C1800   1.418       .  S
Zr265       O266   2.442       .  S
Zr265       O267   2.436       .  S
Zr265       O268   2.419       .  S
Zr265       O271   2.442       .  S
Zr265       O273   2.382       .  S
Zr265       O274   2.396       .  S
Zr265       O275   2.414       .  S
Zr265       O276   2.360       .  S
O266        H322   0.990       .  S
O266        H330   0.991       .  S
O267        C287   1.280       .  A
O268        C289   1.280       .  A
O269       Zr279   2.442       .  S
O269        C288   1.285       .  A
O270       Zr278   2.454       .  S
O270        C289   1.287       .  A
O271        C288   1.285       .  A
O272       Zr280   2.455       .  S
O272        C287   1.287       .  A
O273       Zr278   2.411       .  S
O273       Zr280   2.376       .  S
O274       Zr279   2.403       .  S
O274       Zr280   2.384       .  S
O274        H309   0.964       .  S
O275       Zr278   2.408       .  S
O275       Zr295   2.396       .  S
O275        H312   0.966       .  S
O276       Zr279   2.369       .  S
O276       Zr295   2.331       .  S
Zr277       O302   2.440   1_556  S
Zr277       O296   2.442   1_556  S
Zr277       O304   2.401   1_556  S
Zr277       O292   2.394       .  S
Zr277       O283   2.398       .  S
Zr277       O284   2.408       .  S
Zr277       O285   2.372       .  S
Zr277       O286   2.375       .  S
Zr278       O297   2.438       .  S
Zr278       O290   2.435       .  S
Zr278       O291   2.489       .  S
Zr278       O284   2.399       .  S
Zr278       O285   2.374       .  S
Zr279       O281   2.437       .  S
Zr279       O303   2.440       .  S
Zr279       O305   2.465       .  S
Zr279       O283   2.387       .  S
Zr279       O286   2.386       .  S
Zr280       O306   2.435       .  S
Zr280       O307   2.436       .  S
Zr280       O282   2.439       .  S
Zr280       O283   2.409       .  S
Zr280       O284   2.422       .  S
O281        H318   0.990       .  S
O282        H313   0.990       .  S
O282        H327   0.990       .  S
O284        H310   0.966       .  S
O285       Zr295   2.360       .  S
O286       Zr295   2.398       .  S
O286        H311   0.966       .  S
C287       C1798   1.448       .  S
C288       C1813   1.415       .  S
C289       C1776   1.472       .  S
O290        H326   0.990       .  S
O291        C293   1.295       .  A
O292        C293   1.276       .  A
C293       C1856   1.445       .  S
O294       Zr295   2.435       .  S
O294        H323   0.990       .  S
Zr295       O298   2.433       .  S
Zr295       O299   2.439       .  S
Zr295       O300   2.371       .  S
O296        C301   1.285       .  A
O297        H314   0.990       .  S
O297        H329   0.990       .  S
O298        H315   0.990       .  S
O299        H319   0.990       .  S
O299        H328   0.990       .  S
O300        C301   1.271   1_556  A
C301       C1835   1.414       .  S
O302        H321   0.990       .  S
O302        H325   0.990       .  S
O303        H317   0.990       .  S
O303        H324   0.991       .  S
O304        C308   1.279       .  A
O305        C308   1.288   1_556  A
O306        H316   0.990       .  S
O307        H320   0.990       .  S
C308       C1766   1.472       .  S
Zr331       O332   2.440       .  S
Zr331       O333   2.441       .  S
Zr331       O334   2.429       .  S
Zr331       O337   2.438       .  S
Zr331       O339   2.380       .  S
Zr331       O340   2.394       .  S
Zr331       O341   2.411       .  S
Zr331       O342   2.370       .  S
O332        H388   0.990       .  S
O332        H396   0.991       .  S
O333        C353   1.282       .  A
O334        C355   1.283       .  A
O335       Zr345   2.438       .  S
O335        C354   1.284       .  A
O336       Zr344   2.443       .  S
O336        C355   1.286       .  A
O337        C354   1.285       .  A
O338       Zr346   2.474       .  S
O338        C353   1.290       .  A
O339       Zr344   2.414       .  S
O339       Zr346   2.372       .  S
O340       Zr345   2.407       .  S
O340       Zr346   2.382       .  S
O340        H375   0.965       .  S
O341       Zr344   2.415       .  S
O341       Zr361   2.398       .  S
O341        H378   0.966       .  S
O342       Zr345   2.383       .  S
O342       Zr361   2.343       .  S
Zr343       O368   2.443       .  S
Zr343       O362   2.450       .  S
Zr343       O370   2.392       .  S
Zr343       O358   2.390       .  S
Zr343       O349   2.405       .  S
Zr343       O350   2.410       .  S
Zr343       O351   2.369       .  S
Zr343       O352   2.371       .  S
Zr344       O363   2.438       .  S
Zr344       O356   2.435       .  S
Zr344       O357   2.487       .  S
Zr344       O350   2.395       .  S
Zr344       O351   2.378       .  S
Zr345       O347   2.435       .  S
Zr345       O369   2.436       .  S
Zr345       O371   2.471       .  S
Zr345       O349   2.384       .  S
Zr345       O352   2.386       .  S
Zr346       O372   2.436       .  S
Zr346       O373   2.436       .  S
Zr346       O348   2.438       .  S
Zr346       O349   2.420       .  S
Zr346       O350   2.427       .  S
O347        H384   0.990       .  S
O348        H379   0.990       .  S
O348        H393   0.990       .  S
O350        H376   0.966       .  S
O351       Zr361   2.368       .  S
O352       Zr361   2.395       .  S
O352        H377   0.966       .  S
C353       C1820   1.462       .  S
C354       C1799   1.422       .  S
C355       C1779   1.474       .  S
O356        H392   0.990       .  S
O357        C359   1.294       .  A
O358        C359   1.274       .  A
C359       C1834   1.444       .  S
O360       Zr361   2.435       .  S
O360        H389   0.990       .  S
Zr361       O364   2.436       .  S
Zr361       O365   2.438       .  S
Zr361       O366   2.381       .  S
O362        C367   1.286       .  A
O363        H380   0.990       .  S
O363        H395   0.990       .  S
O364        H381   0.990       .  S
O365        H385   0.990       .  S
O365        H394   0.990       .  S
O366        C367   1.273       .  A
C367       C1850   1.422       .  S
O368        H387   0.990       .  S
O368        H391   0.990       .  S
O369        H383   0.990       .  S
O369        H390   0.990       .  S
O370        C374   1.277       .  A
O371        C374   1.289       .  A
O372        H382   0.990       .  S
O373        H386   0.990       .  S
C374       C1769   1.475       .  S
Zr397       O398   2.441       .  S
Zr397       O399   2.401       .  S
Zr397       O400   2.390       .  S
Zr397       O403   2.415       .  S
Zr397       O405   2.377       .  S
Zr397       O406   2.378       .  S
Zr397       O407   2.408       .  S
Zr397       O408   2.388       .  S
O398        H454   0.990       .  S
O398        H462   0.989       .  S
O399        C419   1.277       .  A
O400        C421   1.279       .  A
O401       Zr411   2.412       .  S
O401        C420   1.279   1_565  A
O402       Zr410   2.413       .  S
O402        C421   1.279       .  A
O403        C420   1.274   1_565  A
O404       Zr412   2.555       .  S
O404        C419   1.306       .  A
O405       Zr410   2.415       .  S
O405       Zr412   2.355       .  S
O406       Zr411   2.420       .  S
O406       Zr412   2.359       .  S
O406        H441   0.966       .  S
O407       Zr410   2.425       .  S
O407       Zr427   2.363       .  S
O407        H444   0.963       .  S
O408       Zr411   2.396       .  S
O408       Zr427   2.355       .  S
Zr409       O434   2.445       .  S
Zr409       O428   2.516       .  S
Zr409       O436   2.415       .  S
Zr409       O424   2.366       .  S
Zr409       O415   2.422       .  S
Zr409       O416   2.429       .  S
Zr409       O417   2.351       .  S
Zr409       O418   2.369       .  S
Zr410       O429   2.440       .  S
Zr410       O422   2.433       .  S
Zr410       O423   2.497       .  S
Zr410       O416   2.384       .  S
Zr410       O417   2.366       .  S
Zr411       O413   2.437   1_565  S
Zr411       O435   2.435       .  S
Zr411       O437   2.474       .  S
Zr411       O415   2.380       .  S
Zr411       O418   2.400       .  S
Zr412       O438   2.435       .  S
Zr412       O439   2.435       .  S
Zr412       O414   2.436       .  S
Zr412       O415   2.455       .  S
Zr412       O416   2.440       .  S
O413        H450   0.991       .  S
O414        H445   0.990       .  S
O414        H459   0.990       .  S
O416        H442   0.966       .  S
O417       Zr427   2.380       .  S
O418       Zr427   2.370       .  S
O418        H443   0.963       .  S
C419       C1749   1.534       .  S
C420       C1754   1.442       .  S
C421       C1821   1.436       .  S
O422        H458   0.990       .  S
O423        C425   1.295       .  A
O424        C425   1.270       .  A
C425       C1758   1.440       .  S
O426       Zr427   2.439       .  S
O426        H455   0.990       .  S
Zr427       O430   2.439       .  S
Zr427       O431   2.440       .  S
Zr427       O432   2.379       .  S
O428        C433   1.300       .  A
O429        H446   0.990       .  S
O429        H461   0.991       .  S
O430        H447   0.990       .  S
O431        H451   0.990       .  S
O431        H460   0.990       .  S
O432        C433   1.271       .  A
C433       C1763   1.448       .  S
O434        H453   0.991       .  S
O434        H457   0.990       .  S
O435        H449   0.990       .  S
O435        H456   0.990   1_565  S
O436        C440   1.281       .  A
O437        C440   1.290       .  A
O438        H448   0.990       .  S
O439        H452   0.990       .  S
C440       C1759   1.474       .  S
Zr463       O464   2.436       .  S
Zr463       O465   2.404       .  S
Zr463       O466   2.395       .  S
Zr463       O469   2.395   1_565  S
Zr463       O471   2.369       .  S
Zr463       O472   2.375       .  S
Zr463       O473   2.399       .  S
Zr463       O474   2.387       .  S
O464        H520   0.990       .  S
O464        H528   0.990       .  S
O465        C485   1.280       .  A
O466        C487   1.279       .  A
O467       Zr477   2.416   1_545  S
O467        C486   1.281       .  A
O468       Zr476   2.419       .  S
O468        C487   1.280       .  A
O469        C486   1.274       .  A
O470       Zr478   2.549       .  S
O470        C485   1.305       .  A
O471       Zr476   2.400       .  S
O471       Zr478   2.354       .  S
O472       Zr477   2.407       .  S
O472       Zr478   2.354       .  S
O472        H507   0.966       .  S
O473       Zr476   2.414       .  S
O473       Zr493   2.377       .  S
O473        H510   0.965       .  S
O474       Zr477   2.395       .  S
O474       Zr493   2.371       .  S
Zr475       O500   2.439       .  S
Zr475       O494   2.476       .  S
Zr475       O502   2.415       .  S
Zr475       O490   2.391       .  S
Zr475       O481   2.423       .  S
Zr475       O482   2.427       .  S
Zr475       O483   2.370       .  S
Zr475       O484   2.369       .  S
Zr476       O495   2.439       .  S
Zr476       O488   2.435       .  S
Zr476       O489   2.456       .  S
Zr476       O482   2.389       .  S
Zr476       O483   2.382       .  S
Zr477       O479   2.439   1_565  S
Zr477       O501   2.435   1_565  S
Zr477       O503   2.466       .  S
Zr477       O481   2.385       .  S
Zr477       O484   2.391       .  S
Zr478       O504   2.435       .  S
Zr478       O505   2.435       .  S
Zr478       O480   2.436       .  S
Zr478       O481   2.452       .  S
Zr478       O482   2.438       .  S
O479        H516   0.990       .  S
O480        H511   0.991       .  S
O480        H525   0.990       .  S
O482        H508   0.966       .  S
O483       Zr493   2.384       .  S
O484       Zr493   2.371       .  S
O484        H509   0.965       .  S
C485       C1737   1.533       .  S
C486       C1742   1.440       .  S
C487       C1810   1.456       .  S
O488        H524   0.990       .  S
O489        C491   1.287       .  A
O490        C491   1.275       .  A
C491       C1747   1.430       .  S
O492       Zr493   2.435       .  S
O492        H521   0.990       .  S
Zr493       O496   2.435       .  S
Zr493       O497   2.439       .  S
Zr493       O498   2.399       .  S
O494        C499   1.292       .  A
O495        H512   0.990       .  S
O495        H527   0.990       .  S
O496        H513   0.990       .  S
O497        H517   0.990       .  S
O497        H526   0.990       .  S
O498        C499   1.275       .  A
C499       C1746   1.443       .  S
O500        H519   0.990       .  S
O500        H523   0.990       .  S
O501        H515   0.990       .  S
O501        H522   0.990       .  S
O502        C506   1.282       .  A
O503        C506   1.287       .  A
O504        H514   0.990       .  S
O505        H518   0.990       .  S
C506       C1760   1.480       .  S
Zr529       O530   2.424   1_556  S
Zr529       O531   2.431       .  S
Zr529       O532   2.377       .  S
Zr529       O535   2.447   1_556  S
Zr529       O537   2.367       .  S
Zr529       O538   2.368       .  S
Zr529       O539   2.416       .  S
Zr529       O540   2.367   1_556  S
O530        H586   0.990       .  S
O530        H594   0.988       .  S
O531        C551   1.279       .  A
O532        C553   1.275       .  A
O533       Zr543   2.451   1_554  S
O533        C552   1.286       .  A
O534       Zr542   2.424       .  S
O534        C553   1.280       .  A
O535        C552   1.289       .  A
O536       Zr544   2.514       .  S
O536        C551   1.292       .  A
O537       Zr542   2.394       .  S
O537       Zr544   2.357       .  S
O538       Zr543   2.406       .  S
O538       Zr544   2.386       .  S
O538        H573   0.966       .  S
O539       Zr542   2.407       .  S
O539       Zr559   2.377   1_556  S
O539        H576   0.964   1_556  S
O540       Zr543   2.368   1_554  S
O540       Zr559   2.365       .  S
Zr541       O566   2.444       .  S
Zr541       O560   2.509       .  S
Zr541       O568   2.415       .  S
Zr541       O556   2.393       .  S
Zr541       O547   2.428       .  S
Zr541       O548   2.425       .  S
Zr541       O549   2.367       .  S
Zr541       O550   2.369       .  S
Zr542       O561   2.434       .  S
Zr542       O554   2.435       .  S
Zr542       O555   2.438       .  S
Zr542       O548   2.396       .  S
Zr542       O549   2.393       .  S
Zr543       O545   2.439   1_556  S
Zr543       O567   2.438       .  S
Zr543       O569   2.442       .  S
Zr543       O547   2.385       .  S
Zr543       O550   2.409       .  S
Zr544       O570   2.436       .  S
Zr544       O571   2.435       .  S
Zr544       O546   2.436       .  S
Zr544       O547   2.453       .  S
Zr544       O548   2.411       .  S
O545        H582   0.990       .  S
O546        H577   0.990       .  S
O546        H591   0.990       .  S
O548        H574   0.964       .  S
O549       Zr559   2.378   1_556  S
O550       Zr559   2.372   1_556  S
O550        H575   0.964   1_556  S
C551       C1721   1.517       .  S
C552       C1726   1.467       .  S
C553       C1842   1.456   1_556  S
O554        H590   0.990       .  S
O555        C557   1.284       .  A
O556        C557   1.276       .  A
C557       C1729   1.416       .  S
O558       Zr559   2.439       .  S
O558        H587   0.990       .  S
Zr559       O562   2.438       .  S
Zr559       O563   2.440       .  S
Zr559       O564   2.404       .  S
O560        C565   1.298   1_556  A
O561        H578   0.990       .  S
O561        H593   0.990       .  S
O562        H579   0.990       .  S
O563        H583   0.990       .  S
O563        H592   0.990       .  S
O564        C565   1.276       .  A
C565       C1735   1.463       .  S
O566        H585   0.990       .  S
O566        H589   0.990       .  S
O567        H581   0.990       .  S
O567        H588   0.990       .  S
O568        C572   1.282       .  A
O569        C572   1.283       .  A
O570        H580   0.990       .  S
O571        H584   0.990       .  S
C572       C1731   1.466       .  S
Zr595       O596   2.440       .  S
Zr595       O597   2.414       .  S
Zr595       O598   2.399       .  S
Zr595       O601   2.438       .  S
Zr595       O603   2.376       .  S
Zr595       O604   2.380       .  S
Zr595       O605   2.413       .  S
Zr595       O606   2.375       .  S
O596        H652   0.990       .  S
O596        H660   0.990       .  S
O597        C617   1.279       .  A
O598        C619   1.281       .  A
O599       Zr609   2.402       .  S
O599        C618   1.272       .  A
O600       Zr608   2.434       .  S
O600        C619   1.282       .  A
O601        C618   1.286       .  A
O602       Zr610   2.516       .  S
O602        C617   1.297   1_554  A
O603       Zr608   2.406       .  S
O603       Zr610   2.364   1_556  S
O604       Zr609   2.410       .  S
O604       Zr610   2.369   1_556  S
O604        H639   0.966       .  S
O605       Zr608   2.412       .  S
O605       Zr625   2.368       .  S
O605        H642   0.963       .  S
O606       Zr609   2.387       .  S
O606       Zr625   2.362       .  S
Zr607       O632   2.446   1_556  S
Zr607       O626   2.513       .  S
Zr607       O634   2.417       .  S
Zr607       O622   2.363   1_556  S
Zr607       O613   2.426   1_556  S
Zr607       O614   2.432   1_556  S
Zr607       O615   2.366       .  S
Zr607       O616   2.362       .  S
Zr608       O627   2.434       .  S
Zr608       O620   2.436   1_556  S
Zr608       O621   2.460   1_556  S
Zr608       O614   2.394   1_556  S
Zr608       O615   2.392       .  S
Zr609       O611   2.437       .  S
Zr609       O633   2.434   1_556  S
Zr609       O635   2.435       .  S
Zr609       O613   2.370   1_556  S
Zr609       O616   2.403       .  S
Zr610       O636   2.438       .  S
Zr610       O637   2.435       .  S
Zr610       O612   2.436       .  S
Zr610       O613   2.447       .  S
Zr610       O614   2.419       .  S
O611        H648   0.990       .  S
O612        H643   0.990       .  S
O612        H657   0.989       .  S
O614        H640   0.965       .  S
O615       Zr625   2.379       .  S
O616       Zr625   2.367       .  S
O616        H641   0.964       .  S
C617       C1709   1.518   1_656  S
C618       C1713   1.448       .  S
C619       C1789   1.465       .  S
O620        H656   0.990       .  S
O621        C623   1.288       .  A
O622        C623   1.271       .  A
C623       C1719   1.417       .  S
O624       Zr625   2.434       .  S
O624        H653   0.990       .  S
Zr625       O628   2.437       .  S
Zr625       O629   2.438       .  S
Zr625       O630   2.398       .  S
O626        C631   1.298       .  A
O627        H644   0.990       .  S
O627        H659   0.990       .  S
O628        H645   0.990       .  S
O629        H649   0.990       .  S
O629        H658   0.990       .  S
O630        C631   1.274       .  A
C631       C1717   1.464       .  S
O632        H651   0.990       .  S
O632        H655   0.990       .  S
O633        H647   0.990       .  S
O633        H654   0.990       .  S
O634        C638   1.280       .  A
O635        C638   1.284       .  A
O636        H646   0.990       .  S
O637        H650   0.990       .  S
C638       C1732   1.465       .  S
Zr661       O662   2.443       .  S
Zr661       O663   2.480       .  S
Zr661       O664   2.421       .  S
Zr661       O667   2.400       .  S
Zr661       O669   2.368       .  S
Zr661       O670   2.382       .  S
Zr661       O671   2.415       .  S
Zr661       O672   2.424       .  S
O662        H718   0.991       .  S
O662        H726   0.990       .  S
O663        C683   1.291       .  A
O664        C685   1.281       .  A
O665       Zr675   2.474       .  S
O665        C684   1.291       .  A
O666       Zr674   2.479       .  S
O666        C685   1.291       .  A
O667        C684   1.276       .  A
O668       Zr676   2.396       .  S
O668        C683   1.273       .  A
O669       Zr674   2.402       .  S
O669       Zr676   2.394       .  S
O670       Zr675   2.403       .  S
O670       Zr676   2.371       .  S
O670        H705   0.966       .  S
O671       Zr674   2.395       .  S
O671       Zr691   2.400       .  S
O671        H708   0.964       .  S
O672       Zr675   2.393       .  S
O672       Zr691   2.420       .  S
Zr673       O698   2.442       .  S
Zr673       O692   2.456       .  S
Zr673       O700   2.424       .  S
Zr673       O688   2.412       .  S
Zr673       O679   2.405       .  S
Zr673       O680   2.412       .  S
Zr673       O681   2.382       .  S
Zr673       O682   2.378       .  S
Zr674       O693   2.435       .  S
Zr674       O686   2.434       .  S
Zr674       O687   2.434       .  S
Zr674       O680   2.419       .  S
Zr674       O681   2.411       .  S
Zr675       O677   2.434       .  S
Zr675       O699   2.436       .  S
Zr675       O701   2.462       .  S
Zr675       O679   2.403       .  S
Zr675       O682   2.406       .  S
Zr676       O702   2.436       .  S
Zr676       O703   2.437       .  S
Zr676       O678   2.438       .  S
Zr676       O679   2.397       .  S
Zr676       O680   2.364       .  S
O677        H714   0.990       .  S
O678        H709   0.991       .  S
O678        H723   0.990       .  S
O680        H706   0.963       .  S
O681       Zr691   2.373       .  S
O682       Zr691   2.365       .  S
O682        H707   0.966       .  S
C683       C1757   1.446       .  S
C684       C1745   1.443       .  S
C685       C1690   1.485       .  S
O686        H722   0.989       .  S
O687        C689   1.284       .  A
O688        C689   1.278       .  A
C689       C1730   1.416       .  S
O690       Zr691   2.435       .  S
O690        H719   0.990       .  S
Zr691       O694   2.437       .  S
Zr691       O695   2.439       .  S
Zr691       O696   2.466       .  S
O692        C697   1.285       .  A
O693        H710   0.990       .  S
O693        H725   0.990       .  S
O694        H711   0.990       .  S
O695        H715   0.990       .  S
O695        H724   0.990       .  S
O696        C697   1.288       .  A
C697       C1718   1.468       .  S
O698        H717   0.990       .  S
O698        H721   0.991       .  S
O699        H713   0.990       .  S
O699        H720   0.990       .  S
O700        C704   1.284       .  A
O701        C704   1.290       .  A
O702        H712   0.990       .  S
O703        H716   0.990       .  S
C704       C1700   1.483       .  S
Zr727       O728   2.440       .  S
Zr727       O729   2.447       .  S
Zr727       O730   2.386       .  S
Zr727       O733   2.384       .  S
Zr727       O735   2.368       .  S
Zr727       O736   2.379       .  S
Zr727       O737   2.403       .  S
Zr727       O738   2.410       .  S
O728        H784   0.991       .  S
O728        H792   0.990       .  S
O729        C749   1.285       .  A
O730        C751   1.275       .  A
O731       Zr741   2.520       .  S
O731        C750   1.301       .  A
O732       Zr740   2.493       .  S
O732        C751   1.294       .  A
O733        C750   1.273       .  A
O734       Zr742   2.400       .  S
O734        C749   1.276       .  A
O735       Zr740   2.388       .  S
O735       Zr742   2.390       .  S
O736       Zr741   2.387       .  S
O736       Zr742   2.349       .  S
O736        H771   0.965       .  S
O737       Zr740   2.393       .  S
O737       Zr757   2.400       .  S
O737        H774   0.965       .  S
O738       Zr741   2.390       .  S
O738       Zr757   2.420       .  S
Zr739       O764   2.443       .  S
Zr739       O758   2.464       .  S
Zr739       O766   2.418       .  S
Zr739       O754   2.434       .  S
Zr739       O745   2.409       .  S
Zr739       O746   2.412       .  S
Zr739       O747   2.380       .  S
Zr739       O748   2.391       .  S
Zr740       O759   2.434       .  S
Zr740       O752   2.434       .  S
Zr740       O753   2.443       .  S
Zr740       O746   2.421       .  S
Zr740       O747   2.413       .  S
Zr741       O743   2.433       .  S
Zr741       O765   2.436       .  S
Zr741       O767   2.469       .  S
Zr741       O745   2.406       .  S
Zr741       O748   2.425       .  S
Zr742       O768   2.437       .  S
Zr742       O769   2.435       .  S
Zr742       O744   2.437       .  S
Zr742       O745   2.388       .  S
Zr742       O746   2.356       .  S
O743        H780   0.990       .  S
O744        H775   0.990       .  S
O744        H789   0.990       .  S
O746        H772   0.963       .  S
O747       Zr757   2.381       .  S
O748       Zr757   2.374       .  S
O748        H773   0.966       .  S
C749       C1748   1.430       .  S
C750       C1764   1.450       .  S
C751       C1693   1.476       .  S
O752        H788   0.990       .  S
O753        C755   1.286       .  A
O754        C755   1.283       .  A
C755       C1720   1.427       .  S
O756       Zr757   2.438       .  S
O756        H785   0.990       .  S
Zr757       O760   2.437       .  S
Zr757       O761   2.439       .  S
Zr757       O762   2.453       .  S
O758        C763   1.286       .  A
O759        H776   0.990       .  S
O759        H791   0.990       .  S
O760        H777   0.990       .  S
O761        H781   0.990       .  S
O761        H790   0.989       .  S
O762        C763   1.285       .  A
C763       C1736   1.467       .  S
O764        H783   0.991       .  S
O764        H787   0.990       .  S
O765        H779   0.990       .  S
O765        H786   0.990       .  S
O766        C770   1.281       .  A
O767        C770   1.291       .  A
O768        H778   0.990       .  S
O769        H782   0.990       .  S
C770       C1703   1.481       .  S
Zr793       O794   2.408       .  S
Zr793       O795   2.420       .  S
Zr793       O796   2.425       .  S
Zr793       O799   2.428       .  S
Zr793       O801   2.376       .  S
Zr793       O802   2.378       .  S
Zr793       O803   2.412       .  S
Zr793       O804   2.385       .  S
O794        H850   0.990       .  S
O794        H858   0.990       .  S
O795        C815   1.279       .  A
O796        C817   1.282       .  A
O797       Zr807   2.443       .  S
O797        C816   1.283       .  A
O798       Zr806   2.393       .  S
O798        C817   1.276       .  A
O799        C816   1.271       .  A
O800       Zr808   2.531       .  S
O800        C815   1.302       .  A
O801       Zr806   2.412       .  S
O801       Zr808   2.362       .  S
O802       Zr807   2.406       .  S
O802       Zr808   2.360       .  S
O802        H837   0.965       .  S
O803       Zr806   2.412       .  S
O803       Zr823   2.382       .  S
O803        H840   0.965       .  S
O804       Zr807   2.388       .  S
O804       Zr823   2.349       .  S
Zr805       O830   2.440       .  S
Zr805       O824   2.505       .  S
Zr805       O832   2.382       .  S
Zr805       O820   2.415       .  S
Zr805       O811   2.429       .  S
Zr805       O812   2.423       .  S
Zr805       O813   2.354       .  S
Zr805       O814   2.375       .  S
Zr806       O825   2.442       .  S
Zr806       O818   2.434       .  S
Zr806       O819   2.455       .  S
Zr806       O812   2.382       .  S
Zr806       O813   2.376       .  S
Zr807       O809   2.437       .  S
Zr807       O831   2.438       .  S
Zr807       O833   2.438       .  S
Zr807       O811   2.391       .  S
Zr807       O814   2.407       .  S
Zr808       O834   2.437       .  S
Zr808       O835   2.436       .  S
Zr808       O810   2.437       .  S
Zr808       O811   2.436       .  S
Zr808       O812   2.449       .  S
O809        H846   0.990       .  S
O810        H841   0.990       .  S
O810        H855   0.990       .  S
O812        H838   0.966       .  S
O813       Zr823   2.372       .  S
O814       Zr823   2.389       .  S
O814        H839   0.966       .  S
C815       C1838   1.514       .  S
C816       C1725   1.460       .  S
C817       C1677   1.450       .  S
O818        H854   0.990       .  S
O819        C821   1.286       .  A
O820        C821   1.281       .  A
C821       C1683   1.481       .  S
O822       Zr823   2.438       .  S
O822        H851   0.990       .  S
Zr823       O826   2.434       .  S
Zr823       O827   2.441       .  S
Zr823       O828   2.389       .  S
O824        C829   1.297       .  A
O825        H842   0.991       .  S
O825        H857   0.990       .  S
O826        H843   0.990       .  S
O827        H847   0.990       .  S
O827        H856   0.990       .  S
O828        C829   1.273       .  A
C829       C1688   1.456       .  S
O830        H849   0.991       .  S
O830        H853   0.990       .  S
O831        H845   0.990       .  S
O831        H852   0.990       .  S
O832        C836   1.274       .  A
O833        C836   1.283       .  A
O834        H844   0.990       .  S
O835        H848   0.990       .  S
C836       C1681   1.417       .  S
Zr859       O860   2.446       .  S
Zr859       O861   2.439       .  S
Zr859       O862   2.406       .  S
Zr859       O865   2.414       .  S
Zr859       O867   2.377       .  S
Zr859       O868   2.384       .  S
Zr859       O869   2.425       .  S
Zr859       O870   2.367       .  S
O860        H916   0.990       .  S
O860        H924   0.991       .  S
O861        C881   1.282       .  A
O862        C883   1.279       .  A
O863       Zr873   2.441       .  S
O863        C882   1.284       .  A
O864       Zr872   2.432       .  S
O864        C883   1.280       .  A
O865        C882   1.283       .  A
O866       Zr874   2.518       .  S
O866        C881   1.296       .  A
O867       Zr872   2.413       .  S
O867       Zr874   2.388       .  S
O868       Zr873   2.403       .  S
O868       Zr874   2.379       .  S
O868        H903   0.965       .  S
O869       Zr872   2.409       .  S
O869       Zr889   2.381       .  S
O869        H906   0.962       .  S
O870       Zr873   2.362       .  S
O870       Zr889   2.354       .  S
Zr871       O896   2.441       .  S
Zr871       O890   2.509       .  S
Zr871       O898   2.376       .  S
Zr871       O886   2.425       .  S
Zr871       O877   2.428       .  S
Zr871       O878   2.428       .  S
Zr871       O879   2.356       .  S
Zr871       O880   2.370       .  S
Zr872       O891   2.443       .  S
Zr872       O884   2.433       .  S
Zr872       O885   2.452       .  S
Zr872       O878   2.390       .  S
Zr872       O879   2.394       .  S
Zr873       O875   2.436       .  S
Zr873       O897   2.438       .  S
Zr873       O899   2.446       .  S
Zr873       O877   2.386       .  S
Zr873       O880   2.396       .  S
Zr874       O900   2.434       .  S
Zr874       O901   2.436       .  S
Zr874       O876   2.437       .  S
Zr874       O877   2.425       .  S
Zr874       O878   2.450       .  S
O875        H912   0.990       .  S
O876        H907   0.990       .  S
O876        H921   0.990       .  S
O878        H904   0.966       .  S
O879       Zr889   2.363       .  S
O880       Zr889   2.385       .  S
O880        H905   0.965       .  S
C881       C1830   1.515   1_545  S
C882       C1753   1.452       .  S
C883       C1669   1.453       .  S
O884        H920   0.990       .  S
O885        C887   1.286       .  A
O886        C887   1.283       .  A
C887       C1684   1.481       .  S
O888       Zr889   2.437       .  S
O888        H917   0.990       .  S
Zr889       O892   2.435       .  S
Zr889       O893   2.439       .  S
Zr889       O894   2.399       .  S
O890        C895   1.298       .  A
O891        H908   0.990       .  S
O891        H923   0.991       .  S
O892        H909   0.990       .  S
O893        H913   0.990       .  S
O893        H922   0.990       .  S
O894        C895   1.275       .  A
C895       C1674   1.459       .  S
O896        H915   0.990       .  S
O896        H919   0.990       .  S
O897        H911   0.990       .  S
O897        H918   0.990       .  S
O898        C902   1.274       .  A
O899        C902   1.284       .  A
O900        H910   0.990       .  S
O901        H914   0.990       .  S
C902       C1676   1.419       .  S
Zr925       O926   2.440       .  S
Zr925       O927   2.420       .  S
Zr925       O928   2.426   1_655  S
Zr925       O931   2.406       .  S
Zr925       O933   2.381       .  S
Zr925       O934   2.384       .  S
Zr925       O935   2.412       .  S
Zr925       O936   2.377       .  S
O926        H982   0.990       .  S
O926        H990   0.990       .  S
O927        C947   1.280       .  A
O928        C949   1.273       .  A
O929       Zr939   2.426       .  S
O929        C948   1.281       .  A
O930       Zr938   2.400   1_455  S
O930        C949   1.274       .  A
O931        C948   1.284       .  A
O932       Zr940   2.538       .  S
O932        C947   1.303       .  A
O933       Zr938   2.415       .  S
O933       Zr940   2.366       .  S
O934       Zr939   2.402       .  S
O934       Zr940   2.367       .  S
O934        H969   0.965       .  S
O935       Zr938   2.437       .  S
O935       Zr955   2.356       .  S
O935        H972   0.964       .  S
O936       Zr939   2.379       .  S
O936       Zr955   2.353       .  S
Zr937       O962   2.439       .  S
Zr937       O956   2.500       .  S
Zr937       O964   2.389       .  S
Zr937       O952   2.409       .  S
Zr937       O943   2.430       .  S
Zr937       O944   2.426       .  S
Zr937       O945   2.364       .  S
Zr937       O946   2.372       .  S
Zr938       O957   2.444   1_655  S
Zr938       O950   2.434   1_655  S
Zr938       O951   2.470       .  S
Zr938       O944   2.385       .  S
Zr938       O945   2.386       .  S
Zr939       O941   2.437       .  S
Zr939       O963   2.438       .  S
Zr939       O965   2.455       .  S
Zr939       O943   2.381       .  S
Zr939       O946   2.390       .  S
Zr940       O966   2.435       .  S
Zr940       O967   2.435       .  S
Zr940       O942   2.438   1_655  S
Zr940       O943   2.440       .  S
Zr940       O944   2.453       .  S
O941        H978   0.990       .  S
O942        H973   0.990       .  S
O942        H987   0.990       .  S
O944        H970   0.966       .  S
O945       Zr955   2.378       .  S
O946       Zr955   2.382       .  S
O946        H971   0.966       .  S
C947       C1802   1.521   1_655  S
C948       C1741   1.449       .  S
C949       C1657   1.440       .  S
O950        H986   0.990       .  S
O951        C953   1.288       .  A
O952        C953   1.281       .  A
C953       C1664   1.490       .  S
O954       Zr955   2.436       .  S
O954        H983   0.990       .  S
Zr955       O958   2.435       .  S
Zr955       O959   2.438       .  S
Zr955       O960   2.371       .  S
O956        C961   1.296       .  A
O957        H974   0.990       .  S
O957        H989   0.991       .  S
O958        H975   0.990       .  S
O959        H979   0.990       .  S
O959        H988   0.990       .  S
O960        C961   1.270       .  A
C961       C1668   1.443       .  S
O962        H981   0.990       .  S
O962        H985   0.990       .  S
O963        H977   0.990       .  S
O963        H984   0.990       .  S
O964        C968   1.275       .  A
O965        C968   1.286       .  A
O966        H976   0.990       .  S
O967        H980   0.990       .  S
C968       C1662   1.428       .  S
Zr991       O992   2.436       .  S
Zr991       O993   2.399       .  S
Zr991       O994   2.421       .  S
Zr991       O997   2.424       .  S
Zr991       O999   2.388       .  S
Zr991      O1000   2.395       .  S
Zr991      O1001   2.431       .  S
Zr991      O1002   2.397       .  S
O992       H1048   0.990       .  S
O992       H1056   0.990       .  S
O993       C1013   1.276       .  A
O994       C1015   1.280   1_655  A
O995      Zr1005   2.414       .  S
O995       C1014   1.277       .  A
O996      Zr1004   2.409   1_455  S
O996       C1015   1.271       .  A
O997       C1014   1.267       .  A
O998      Zr1006   2.542       .  S
O998       C1013   1.305       .  A
O999      Zr1004   2.412       .  S
O999      Zr1006   2.357       .  S
O1000     Zr1005   2.413       .  S
O1000     Zr1006   2.353       .  S
O1000      H1035   0.966       .  S
O1001     Zr1004   2.417       .  S
O1001     Zr1021   2.369       .  S
O1001      H1038   0.965       .  S
O1002     Zr1005   2.412       .  S
O1002     Zr1021   2.367       .  S
Zr1003     O1028   2.438       .  S
Zr1003     O1022   2.486       .  S
Zr1003     O1030   2.393       .  S
Zr1003     O1018   2.416       .  S
Zr1003     O1009   2.429       .  S
Zr1003     O1010   2.419       .  S
Zr1003     O1011   2.359       .  S
Zr1003     O1012   2.371       .  S
Zr1004     O1023   2.438   1_655  S
Zr1004     O1016   2.436   1_655  S
Zr1004     O1017   2.459       .  S
Zr1004     O1010   2.376       .  S
Zr1004     O1011   2.385       .  S
Zr1005     O1007   2.439       .  S
Zr1005     O1029   2.438       .  S
Zr1005     O1031   2.456       .  S
Zr1005     O1009   2.391       .  S
Zr1005     O1012   2.390       .  S
Zr1006     O1032   2.435       .  S
Zr1006     O1033   2.435       .  S
Zr1006     O1008   2.437       .  S
Zr1006     O1009   2.446       .  S
Zr1006     O1010   2.438       .  S
O1007      H1044   0.990       .  S
O1008      H1039   0.990       .  S
O1008      H1053   0.990       .  S
O1010      H1036   0.966       .  S
O1011     Zr1021   2.376       .  S
O1012     Zr1021   2.375       .  S
O1012      H1037   0.965       .  S
C1013      C1786   1.515       .  S
C1014      C1714   1.445       .  S
C1015      C1649   1.453       .  S
O1016      H1052   0.990       .  S
O1017      C1019   1.288       .  A
O1018      C1019   1.281       .  A
C1019      C1663   1.474       .  S
O1020     Zr1021   2.436       .  S
O1020      H1049   0.990       .  S
Zr1021     O1024   2.435       .  S
Zr1021     O1025   2.440       .  S
Zr1021     O1026   2.390       .  S
O1022      C1027   1.294       .  A
O1023      H1040   0.990       .  S
O1023      H1055   0.990   1_455  S
O1024      H1041   0.990       .  S
O1025      H1045   0.990       .  S
O1025      H1054   0.990       .  S
O1026      C1027   1.273       .  A
C1027      C1654   1.444       .  S
O1028      H1047   0.990       .  S
O1028      H1051   0.990       .  S
O1029      H1043   0.990       .  S
O1029      H1050   0.990       .  S
O1030      C1034   1.276       .  A
O1031      C1034   1.286       .  A
O1032      H1042   0.990       .  S
O1033      H1046   0.990       .  S
C1034      C1655   1.428       .  S
Zr1057     O1058   2.442       .  S
Zr1057     O1059   2.449       .  S
Zr1057     O1060   2.400       .  S
Zr1057     O1063   2.402       .  S
Zr1057     O1065   2.374       .  S
Zr1057     O1066   2.374       .  S
Zr1057     O1067   2.412       .  S
Zr1057     O1068   2.394       .  S
O1058      H1114   0.991       .  S
O1058      H1122   0.990       .  S
O1059      C1079   1.286       .  A
O1060      C1081   1.275       .  A
O1061     Zr1071   2.469       .  S
O1061      C1080   1.289       .  A
O1062     Zr1070   2.486   1_556  S
O1062      C1081   1.294       .  A
O1063      C1080   1.279       .  A
O1064     Zr1072   2.398       .  S
O1064      C1079   1.276       .  A
O1065     Zr1070   2.384   1_556  S
O1065     Zr1072   2.362       .  S
O1066     Zr1071   2.385       .  S
O1066     Zr1072   2.395       .  S
O1066      H1101   0.965       .  S
O1067     Zr1070   2.401   1_556  S
O1067     Zr1087   2.421       .  S
O1067      H1104   0.966       .  S
O1068     Zr1071   2.384       .  S
O1068     Zr1087   2.400       .  S
Zr1069     O1094   2.443       .  S
Zr1069     O1088   2.459       .  S
Zr1069     O1096   2.441       .  S
Zr1069     O1084   2.424       .  S
Zr1069     O1075   2.376   1_554  S
Zr1069     O1076   2.418       .  S
Zr1069     O1077   2.384       .  S
Zr1069     O1078   2.389       .  S
Zr1070     O1089   2.437       .  S
Zr1070     O1082   2.435       .  S
Zr1070     O1083   2.448       .  S
Zr1070     O1076   2.409       .  S
Zr1070     O1077   2.413       .  S
Zr1071     O1073   2.437       .  S
Zr1071     O1095   2.439       .  S
Zr1071     O1097   2.443       .  S
Zr1071     O1075   2.379       .  S
Zr1071     O1078   2.407   1_556  S
Zr1072     O1098   2.434       .  S
Zr1072     O1099   2.436   1_556  S
Zr1072     O1074   2.437       .  S
Zr1072     O1075   2.357       .  S
Zr1072     O1076   2.401   1_556  S
O1073      H1110   0.990       .  S
O1074      H1105   0.990   1_556  S
O1074      H1119   0.990       .  S
O1076      H1102   0.966       .  S
O1077     Zr1087   2.374   1_554  S
O1078     Zr1087   2.386   1_554  S
O1078      H1103   0.965       .  S
C1079      C1661   1.428       .  S
C1080      C1640   1.473       .  S
C1081      C1653   1.446       .  S
O1082      H1118   0.989       .  S
O1083      C1085   1.286       .  A
O1084      C1085   1.281       .  A
C1085      C1630   1.471       .  S
O1086     Zr1087   2.435       .  S
O1086      H1115   0.990       .  S
Zr1087     O1090   2.436   1_556  S
Zr1087     O1091   2.437       .  S
Zr1087     O1092   2.457   1_556  S
O1088      C1093   1.285       .  A
O1089      H1106   0.990   1_554  S
O1089      H1121   0.990       .  S
O1090      H1107   0.990       .  S
O1091      H1111   0.990       .  S
O1091      H1120   0.990       .  S
O1092      C1093   1.287       .  A
C1093      C1687   1.462       .  S
O1094      H1113   0.991       .  S
O1094      H1117   0.990       .  S
O1095      H1109   0.990       .  S
O1095      H1116   0.990       .  S
O1096      C1100   1.285       .  A
O1097      C1100   1.286   1_556  A
O1098      H1108   0.990       .  S
O1099      H1112   0.990       .  S
C1100      C1675   1.428       .  S
Zr1123     O1124   2.441       .  S
Zr1123     O1125   2.450       .  S
Zr1123     O1126   2.399       .  S
Zr1123     O1129   2.395       .  S
Zr1123     O1131   2.375       .  S
Zr1123     O1132   2.373       .  S
Zr1123     O1133   2.410       .  S
Zr1123     O1134   2.401       .  S
O1124      H1180   0.990       .  S
O1124      H1188   0.990       .  S
O1125      C1145   1.286       .  A
O1126      C1147   1.274       .  A
O1127     Zr1137   2.466       .  S
O1127      C1146   1.289       .  A
O1128     Zr1136   2.484       .  S
O1128      C1147   1.293       .  A
O1129      C1146   1.278       .  A
O1130     Zr1138   2.393       .  S
O1130      C1145   1.275       .  A
O1131     Zr1136   2.384       .  S
O1131     Zr1138   2.375       .  S
O1132     Zr1137   2.381       .  S
O1132     Zr1138   2.390       .  S
O1132      H1167   0.966       .  S
O1133     Zr1136   2.393       .  S
O1133     Zr1153   2.428       .  S
O1133      H1170   0.966       .  S
O1134     Zr1137   2.381       .  S
O1134     Zr1153   2.411       .  S
Zr1135     O1160   2.441       .  S
Zr1135     O1154   2.444       .  S
Zr1135     O1162   2.432       .  S
Zr1135     O1150   2.426       .  S
Zr1135     O1141   2.390       .  S
Zr1135     O1142   2.410       .  S
Zr1135     O1143   2.377       .  S
Zr1135     O1144   2.388       .  S
Zr1136     O1155   2.437       .  S
Zr1136     O1148   2.435       .  S
Zr1136     O1149   2.445       .  S
Zr1136     O1142   2.409       .  S
Zr1136     O1143   2.411       .  S
Zr1137     O1139   2.435       .  S
Zr1137     O1161   2.437       .  S
Zr1137     O1163   2.424       .  S
Zr1137     O1141   2.398       .  S
Zr1137     O1144   2.405       .  S
Zr1138     O1164   2.437       .  S
Zr1138     O1165   2.435       .  S
Zr1138     O1140   2.437       .  S
Zr1138     O1141   2.361       .  S
Zr1138     O1142   2.392       .  S
O1139      H1176   0.990       .  S
O1140      H1171   0.990       .  S
O1140      H1185   0.990       .  S
O1142      H1168   0.966       .  S
O1143     Zr1153   2.371       .  S
O1144     Zr1153   2.375       .  S
O1144      H1169   0.965       .  S
C1145      C1656   1.426       .  S
C1146      C1643   1.472       .  S
C1147      C1667   1.447       .  S
O1148      H1184   0.990       .  S
O1149      C1151   1.286       .  A
O1150      C1151   1.283       .  A
C1151      C1633   1.476       .  S
O1152     Zr1153   2.435       .  S
O1152      H1181   0.990       .  S
Zr1153     O1156   2.435       .  S
Zr1153     O1157   2.438       .  S
Zr1153     O1158   2.473       .  S
O1154      C1159   1.282       .  A
O1155      H1172   0.990       .  S
O1155      H1187   0.990       .  S
O1156      H1173   0.990       .  S
O1157      H1177   0.990       .  S
O1157      H1186   0.990       .  S
O1158      C1159   1.290       .  A
C1159      C1673   1.463       .  S
O1160      H1179   0.990       .  S
O1160      H1183   0.990       .  S
O1161      H1175   0.990       .  S
O1161      H1182   0.990       .  S
O1162      C1166   1.283       .  A
O1163      C1166   1.281       .  A
O1164      H1174   0.990       .  S
O1165      H1178   0.990       .  S
C1166      C1682   1.419       .  S
Zr1189     O1190   2.442   1_545  S
Zr1189     O1191   2.422   1_545  S
Zr1189     O1192   2.425       .  S
Zr1189     O1195   2.425   1_545  S
Zr1189     O1197   2.374       .  S
Zr1189     O1198   2.388   1_545  S
Zr1189     O1199   2.409       .  S
Zr1189     O1200   2.372       .  S
O1190      H1246   0.990       .  S
O1190      H1254   0.991   1_565  S
O1191      C1211   1.280       .  A
O1192      C1213   1.282       .  A
O1193     Zr1203   2.418       .  S
O1193      C1212   1.278       .  A
O1194     Zr1202   2.405       .  S
O1194      C1213   1.278       .  A
O1195      C1212   1.285       .  A
O1196     Zr1204   2.544   1_565  S
O1196      C1211   1.300       .  A
O1197     Zr1202   2.404       .  S
O1197     Zr1204   2.369       .  S
O1198     Zr1203   2.415       .  S
O1198     Zr1204   2.373   1_565  S
O1198      H1233   0.966       .  S
O1199     Zr1202   2.406       .  S
O1199     Zr1219   2.367       .  S
O1199      H1236   0.963       .  S
O1200     Zr1203   2.380   1_545  S
O1200     Zr1219   2.352       .  S
Zr1201     O1226   2.441       .  S
Zr1201     O1220   2.515       .  S
Zr1201     O1228   2.417       .  S
Zr1201     O1216   2.409       .  S
Zr1201     O1207   2.440       .  S
Zr1201     O1208   2.435       .  S
Zr1201     O1209   2.362       .  S
Zr1201     O1210   2.365       .  S
Zr1202     O1221   2.439       .  S
Zr1202     O1214   2.435       .  S
Zr1202     O1215   2.435       .  S
Zr1202     O1208   2.388       .  S
Zr1202     O1209   2.397       .  S
Zr1203     O1205   2.438       .  S
Zr1203     O1227   2.437       .  S
Zr1203     O1229   2.453   1_565  S
Zr1203     O1207   2.380   1_565  S
Zr1203     O1210   2.401   1_565  S
Zr1204     O1230   2.437   1_545  S
Zr1204     O1231   2.437       .  S
Zr1204     O1206   2.437       .  S
Zr1204     O1207   2.460       .  S
Zr1204     O1208   2.435       .  S
O1205      H1242   0.990       .  S
O1206      H1237   0.990       .  S
O1206      H1251   0.990       .  S
O1208      H1234   0.965       .  S
O1209     Zr1219   2.386       .  S
O1210     Zr1219   2.374       .  S
O1210      H1235   0.965       .  S
C1211      C1750   1.526       .  S
C1212      C1825   1.449       .  S
C1213      C1670   1.439       .  S
O1214      H1250   0.990       .  S
O1215      C1217   1.283       .  A
O1216      C1217   1.277       .  A
C1217      C1622   1.426       .  S
O1218     Zr1219   2.438       .  S
O1218      H1247   0.990       .  S
Zr1219     O1222   2.436       .  S
Zr1219     O1223   2.439       .  S
Zr1219     O1224   2.384       .  S
O1220      C1225   1.299       .  A
O1221      H1238   0.990       .  S
O1221      H1253   0.990       .  S
O1222      H1239   0.990       .  S
O1223      H1243   0.990       .  S
O1223      H1252   0.990       .  S
O1224      C1225   1.272       .  A
C1225      C1627   1.458       .  S
O1226      H1245   0.990       .  S
O1226      H1249   0.991       .  S
O1227      H1241   0.990       .  S
O1227      H1248   0.990       .  S
O1228      C1232   1.282       .  A
O1229      C1232   1.285       .  A
O1230      H1240   0.990       .  S
O1231      H1244   0.990       .  S
C1232      C1624   1.477       .  S
Zr1255     O1256   2.437       .  S
Zr1255     O1257   2.418       .  S
Zr1255     O1258   2.410       .  S
Zr1255     O1261   2.439       .  S
Zr1255     O1263   2.373       .  S
Zr1255     O1264   2.384       .  S
Zr1255     O1265   2.415       .  S
Zr1255     O1266   2.349       .  S
O1256      H1312   0.990       .  S
O1256      H1320   0.990       .  S
O1257      C1277   1.279       .  A
O1258      C1279   1.279       .  A
O1259     Zr1269   2.440   1_565  S
O1259      C1278   1.283   1_565  A
O1260     Zr1268   2.420       .  S
O1260      C1279   1.278       .  A
O1261      C1278   1.288       .  A
O1262     Zr1270   2.539       .  S
O1262      C1277   1.298       .  A
O1263     Zr1268   2.404       .  S
O1263     Zr1270   2.372       .  S
O1264     Zr1269   2.420       .  S
O1264     Zr1270   2.381       .  S
O1264      H1299   0.966   1_545  S
O1265     Zr1268   2.418       .  S
O1265     Zr1285   2.370       .  S
O1265      H1302   0.962       .  S
O1266     Zr1269   2.356       .  S
O1266     Zr1285   2.334       .  S
Zr1267     O1292   2.439       .  S
Zr1267     O1286   2.521       .  S
Zr1267     O1294   2.428       .  S
Zr1267     O1282   2.387       .  S
Zr1267     O1273   2.435       .  S
Zr1267     O1274   2.440       .  S
Zr1267     O1275   2.367       .  S
Zr1267     O1276   2.370       .  S
Zr1268     O1287   2.442       .  S
Zr1268     O1280   2.433       .  S
Zr1268     O1281   2.459       .  S
Zr1268     O1274   2.394       .  S
Zr1268     O1275   2.392       .  S
Zr1269     O1271   2.440   1_545  S
Zr1269     O1293   2.436   1_545  S
Zr1269     O1295   2.453       .  S
Zr1269     O1273   2.384       .  S
Zr1269     O1276   2.410       .  S
Zr1270     O1296   2.437   1_545  S
Zr1270     O1297   2.436       .  S
Zr1270     O1272   2.437       .  S
Zr1270     O1273   2.459       .  S
Zr1270     O1274   2.445       .  S
O1271      H1308   0.991       .  S
O1272      H1303   0.990       .  S
O1272      H1317   0.990       .  S
O1274      H1300   0.966       .  S
O1275     Zr1285   2.373       .  S
O1276     Zr1285   2.376       .  S
O1276      H1301   0.965       .  S
C1277      C1738   1.523   1_445  S
C1278      C1805   1.451   1_545  S
C1279      C1658   1.446       .  S
O1280      H1316   0.990       .  S
O1281      C1283   1.284       .  A
O1282      C1283   1.271       .  A
C1283      C1620   1.428       .  S
O1284     Zr1285   2.435       .  S
O1284      H1313   0.990       .  S
Zr1285     O1288   2.436       .  S
Zr1285     O1289   2.439       .  S
Zr1285     O1290   2.373       .  S
O1286      C1291   1.299       .  A
O1287      H1304   0.990       .  S
O1287      H1319   0.990       .  S
O1288      H1305   0.990       .  S
O1289      H1309   0.990       .  S
O1289      H1318   0.990       .  S
O1290      C1291   1.270       .  A
C1291      C1618   1.455       .  S
O1292      H1311   0.990       .  S
O1292      H1315   0.991       .  S
O1293      H1307   0.990       .  S
O1293      H1314   0.990       .  S
O1294      C1298   1.283       .  A
O1295      C1298   1.286       .  A
O1296      H1306   0.990       .  S
O1297      H1310   0.990       .  S
C1298      C1623   1.477       .  S
Zr1321     O1322   2.439       .  S
Zr1321     O1323   2.440       .  S
Zr1321     O1324   2.378       .  S
Zr1321     O1327   2.457       .  S
Zr1321     O1329   2.381       .  S
Zr1321     O1330   2.377       .  S
Zr1321     O1331   2.421       .  S
Zr1321     O1332   2.366       .  S
O1322      H1378   0.990       .  S
O1322      H1386   0.991   1_556  S
O1323      C1343   1.284       .  A
O1324      C1345   1.276       .  A
O1325     Zr1335   2.414       .  S
O1325      C1344   1.277       .  A
O1326     Zr1334   2.442       .  S
O1326      C1345   1.284       .  A
O1327      C1344   1.290       .  A
O1328     Zr1336   2.505       .  S
O1328      C1343   1.296       .  A
O1329     Zr1334   2.404       .  S
O1329     Zr1336   2.361       .  S
O1330     Zr1335   2.413       .  S
O1330     Zr1336   2.386       .  S
O1330      H1365   0.966       .  S
O1331     Zr1334   2.414       .  S
O1331     Zr1351   2.376       .  S
O1331      H1368   0.965       .  S
O1332     Zr1335   2.385       .  S
O1332     Zr1351   2.367       .  S
Zr1333     O1358   2.438       .  S
Zr1333     O1352   2.494       .  S
Zr1333     O1360   2.426       .  S
Zr1333     O1348   2.363       .  S
Zr1333     O1339   2.412       .  S
Zr1333     O1340   2.429       .  S
Zr1333     O1341   2.363       .  S
Zr1333     O1342   2.371       .  S
Zr1334     O1353   2.439       .  S
Zr1334     O1346   2.434       .  S
Zr1334     O1347   2.479       .  S
Zr1334     O1340   2.397       .  S
Zr1334     O1341   2.369       .  S
Zr1335     O1337   2.439       .  S
Zr1335     O1359   2.436       .  S
Zr1335     O1361   2.447       .  S
Zr1335     O1339   2.373       .  S
Zr1335     O1342   2.411       .  S
Zr1336     O1362   2.436       .  S
Zr1336     O1363   2.435       .  S
Zr1336     O1338   2.437       .  S
Zr1336     O1339   2.438       .  S
Zr1336     O1340   2.431       .  S
O1337      H1374   0.990       .  S
O1338      H1369   0.990       .  S
O1338      H1383   0.990       .  S
O1340      H1366   0.966       .  S
O1341     Zr1351   2.357       .  S
O1342     Zr1351   2.379       .  S
O1342      H1367   0.963       .  S
C1343      C1722   1.523       .  S
C1344      C1845   1.458   1_556  S
C1345      C1678   1.463   1_556  S
O1346      H1382   0.990       .  S
O1347      C1349   1.292       .  A
O1348      C1349   1.272       .  A
C1349      C1609   1.430       .  S
O1350     Zr1351   2.437   1_554  S
O1350      H1379   0.990       .  S
Zr1351     O1354   2.438   1_556  S
Zr1351     O1355   2.439   1_556  S
Zr1351     O1356   2.404       .  S
O1352      C1357   1.295       .  A
O1353      H1370   0.990       .  S
O1353      H1385   0.990       .  S
O1354      H1371   0.990       .  S
O1355      H1375   0.990   1_554  S
O1355      H1384   0.990       .  S
O1356      C1357   1.276       .  A
C1357      C1615   1.453       .  S
O1358      H1377   0.990       .  S
O1358      H1381   0.990       .  S
O1359      H1373   0.990       .  S
O1359      H1380   0.990       .  S
O1360      C1364   1.282       .  A
O1361      C1364   1.286       .  A
O1362      H1372   0.990       .  S
O1363      H1376   0.990       .  S
C1364      C1611   1.471       .  S
Zr1387     O1388   2.438       .  S
Zr1387     O1389   2.418       .  S
Zr1387     O1390   2.419       .  S
Zr1387     O1393   2.447       .  S
Zr1387     O1395   2.382       .  S
Zr1387     O1396   2.384       .  S
Zr1387     O1397   2.420       .  S
Zr1387     O1398   2.362       .  S
O1388      H1444   0.990       .  S
O1388      H1452   0.989       .  S
O1389      C1409   1.280       .  A
O1390      C1411   1.266       .  A
O1391     Zr1401   2.451       .  S
O1391      C1410   1.286       .  A
O1392     Zr1400   2.429       .  S
O1392      C1411   1.278       .  A
O1393      C1410   1.291       .  A
O1394     Zr1402   2.521       .  S
O1394      C1409   1.294       .  A
O1395     Zr1400   2.407       .  S
O1395     Zr1402   2.356       .  S
O1396     Zr1401   2.407       .  S
O1396     Zr1402   2.387       .  S
O1396      H1431   0.966       .  S
O1397     Zr1400   2.428       .  S
O1397     Zr1417   2.374       .  S
O1397      H1434   0.958       .  S
O1398     Zr1401   2.361       .  S
O1398     Zr1417   2.351       .  S
Zr1399     O1424   2.444       .  S
Zr1399     O1418   2.508       .  S
Zr1399     O1426   2.430       .  S
Zr1399     O1414   2.409       .  S
Zr1399     O1405   2.432       .  S
Zr1399     O1406   2.428       .  S
Zr1399     O1407   2.370       .  S
Zr1399     O1408   2.371       .  S
Zr1400     O1419   2.436       .  S
Zr1400     O1412   2.434       .  S
Zr1400     O1413   2.466       .  S
Zr1400     O1406   2.396       .  S
Zr1400     O1407   2.390       .  S
Zr1401     O1403   2.441       .  S
Zr1401     O1425   2.438       .  S
Zr1401     O1427   2.442       .  S
Zr1401     O1405   2.385       .  S
Zr1401     O1408   2.410       .  S
Zr1402     O1428   2.436   1_556  S
Zr1402     O1429   2.435   1_556  S
Zr1402     O1404   2.435   1_556  S
Zr1402     O1405   2.450       .  S
Zr1402     O1406   2.426       .  S
O1403      H1440   0.990       .  S
O1404      H1435   0.990       .  S
O1404      H1449   0.990       .  S
O1406      H1432   0.965       .  S
O1407     Zr1417   2.382       .  S
O1408     Zr1417   2.376       .  S
O1408      H1433   0.964       .  S
C1409      C1710   1.511       .  S
C1410      C1793   1.463       .  S
C1411      C1650   1.453       .  S
O1412      H1448   0.990       .  S
O1413      C1415   1.290       .  A
O1414      C1415   1.279       .  A
C1415      C1607   1.440       .  S
O1416     Zr1417   2.438       .  S
O1416      H1445   0.990       .  S
Zr1417     O1420   2.437       .  S
Zr1417     O1421   2.442       .  S
Zr1417     O1422   2.388       .  S
O1418      C1423   1.298       .  A
O1419      H1436   0.990       .  S
O1419      H1451   0.990       .  S
O1420      H1437   0.990       .  S
O1421      H1441   0.990       .  S
O1421      H1450   0.990       .  S
O1422      C1423   1.273       .  A
C1423      C1605   1.456       .  S
O1424      H1443   0.990       .  S
O1424      H1447   0.991   1_556  S
O1425      H1439   0.990       .  S
O1425      H1446   0.990       .  S
O1426      C1430   1.285       .  A
O1427      C1430   1.283       .  A
O1428      H1438   0.990       .  S
O1429      H1442   0.990       .  S
C1430      C1612   1.470       .  S
Zr1453     O1454   2.441       .  S
Zr1453     O1455   2.464       .  S
Zr1453     O1456   2.398       .  S
Zr1453     O1459   2.417       .  S
Zr1453     O1461   2.369       .  S
Zr1453     O1462   2.381       .  S
Zr1453     O1463   2.410       .  S
Zr1453     O1464   2.414       .  S
O1454      H1510   0.990       .  S
O1454      H1518   0.990       .  S
O1455      C1475   1.289       .  A
O1456      C1477   1.278       .  A
O1457     Zr1467   2.504       .  S
O1457      C1476   1.298       .  A
O1458     Zr1466   2.483       .  S
O1458      C1477   1.293       .  A
O1459      C1476   1.280       .  A
O1460     Zr1468   2.407       .  S
O1460      C1475   1.277       .  A
O1461     Zr1466   2.378       .  S
O1461     Zr1468   2.375       .  S
O1462     Zr1467   2.399       .  S
O1462     Zr1468   2.370       .  S
O1462      H1497   0.965       .  S
O1463     Zr1466   2.395       .  S
O1463     Zr1483   2.400       .  S
O1463      H1500   0.966       .  S
O1464     Zr1467   2.398       .  S
O1464     Zr1483   2.424       .  S
Zr1465     O1490   2.442       .  S
Zr1465     O1484   2.438       .  S
Zr1465     O1492   2.413       .  S
Zr1465     O1480   2.416       .  S
Zr1465     O1471   2.398       .  S
Zr1465     O1472   2.399       .  S
Zr1465     O1473   2.382       .  S
Zr1465     O1474   2.381       .  S
Zr1466     O1485   2.435       .  S
Zr1466     O1478   2.436       .  S
Zr1466     O1479   2.442       .  S
Zr1466     O1472   2.415       .  S
Zr1466     O1473   2.398       .  S
Zr1467     O1469   2.434       .  S
Zr1467     O1491   2.435       .  S
Zr1467     O1493   2.487       .  S
Zr1467     O1471   2.405       .  S
Zr1467     O1474   2.405       .  S
Zr1468     O1494   2.438       .  S
Zr1468     O1495   2.436       .  S
Zr1468     O1470   2.437       .  S
Zr1468     O1471   2.393       .  S
Zr1468     O1472   2.379       .  S
O1469      H1506   0.990       .  S
O1470      H1501   0.990       .  S
O1470      H1515   0.990       .  S
O1472      H1498   0.965       .  S
O1473     Zr1483   2.364       .  S
O1474     Zr1483   2.366       .  S
O1474      H1499   0.966       .  S
C1475      C1610   1.436       .  S
C1476      C1606   1.459       .  S
C1477      C1596   1.475       .  S
O1478      H1514   0.990       .  S
O1479      C1481   1.286       .  A
O1480      C1481   1.281       .  A
C1481      C1621   1.428       .  S
O1482     Zr1483   2.439       .  S
O1482      H1511   0.990       .  S
Zr1483     O1486   2.437       .  S
Zr1483     O1487   2.437       .  S
Zr1483     O1488   2.472       .  S
O1484      C1489   1.283       .  A
O1485      H1502   0.990       .  S
O1485      H1517   0.990       .  S
O1486      H1503   0.990       .  S
O1487      H1507   0.990       .  S
O1487      H1516   0.990       .  S
O1488      C1489   1.291       .  A
C1489      C1617   1.462       .  S
O1490      H1509   0.991       .  S
O1490      H1513   0.990       .  S
O1491      H1505   0.990       .  S
O1491      H1512   0.990       .  S
O1492      C1496   1.283       .  A
O1493      C1496   1.295       .  A
O1494      H1504   0.990       .  S
O1495      H1508   0.990       .  S
C1496      C1589   1.486       .  S
Zr1519     O1520   2.440       .  S
Zr1519     O1521   2.453       .  S
Zr1519     O1522   2.396       .  S
Zr1519     O1525   2.417       .  S
Zr1519     O1527   2.372       .  S
Zr1519     O1528   2.378       .  S
Zr1519     O1529   2.409       .  S
Zr1519     O1530   2.408       .  S
O1520      H1576   0.990       .  S
O1520      H1584   0.990       .  S
O1521      C1541   1.286       .  A
O1522      C1543   1.277       .  A
O1523     Zr1533   2.503       .  S
O1523      C1542   1.298       .  A
O1524     Zr1532   2.501       .  S
O1524      C1543   1.296       .  A
O1525      C1542   1.280       .  A
O1526     Zr1534   2.401       .  S
O1526      C1541   1.276       .  A
O1527     Zr1532   2.379       .  S
O1527     Zr1534   2.382       .  S
O1528     Zr1533   2.389       .  S
O1528     Zr1534   2.370       .  S
O1528      H1563   0.965       .  S
O1529     Zr1532   2.398       .  S
O1529     Zr1549   2.401       .  S
O1529      H1566   0.965       .  S
O1530     Zr1533   2.393       .  S
O1530     Zr1549   2.421       .  S
Zr1531     O1556   2.442   1_554  S
Zr1531     O1550   2.435   1_554  S
Zr1531     O1558   2.431   1_554  S
Zr1531     O1546   2.427       .  S
Zr1531     O1537   2.403       .  S
Zr1531     O1538   2.403       .  S
Zr1531     O1539   2.384       .  S
Zr1531     O1540   2.385       .  S
Zr1532     O1551   2.436       .  S
Zr1532     O1544   2.435       .  S
Zr1532     O1545   2.462       .  S
Zr1532     O1538   2.414       .  S
Zr1532     O1539   2.405       .  S
Zr1533     O1535   2.434       .  S
Zr1533     O1557   2.436       .  S
Zr1533     O1559   2.471       .  S
Zr1533     O1537   2.409       .  S
Zr1533     O1540   2.412       .  S
Zr1534     O1560   2.440       .  S
Zr1534     O1561   2.436       .  S
Zr1534     O1536   2.437       .  S
Zr1534     O1537   2.389       .  S
Zr1534     O1538   2.379       .  S
O1535      H1572   0.990       .  S
O1536      H1567   0.991       .  S
O1536      H1581   0.990       .  S
O1538      H1564   0.965       .  S
O1539     Zr1549   2.367       .  S
O1540     Zr1549   2.360       .  S
O1540      H1565   0.965       .  S
C1541      C1619   1.430       .  S
C1542      C1628   1.461       .  S
C1543      C1586   1.483       .  S
O1544      H1580   0.990       .  S
O1545      C1547   1.291       .  A
O1546      C1547   1.283       .  A
C1547      C1608   1.442       .  S
O1548     Zr1549   2.438       .  S
O1548      H1577   0.991       .  S
Zr1549     O1552   2.438       .  S
Zr1549     O1553   2.440       .  S
Zr1549     O1554   2.468       .  S
O1550      C1555   1.282   1_556  A
O1551      H1568   0.990       .  S
O1551      H1583   0.990       .  S
O1552      H1569   0.990       .  S
O1553      H1573   0.990       .  S
O1553      H1582   0.990       .  S
O1554      C1555   1.289       .  A
C1555      C1616   1.458   1_554  S
O1556      H1575   0.990       .  S
O1556      H1579   0.990       .  S
O1557      H1571   0.990       .  S
O1557      H1578   0.990       .  S
O1558      C1562   1.285       .  A
O1559      C1562   1.292   1_554  A
O1560      H1570   0.990       .  S
O1561      H1574   0.990       .  S
C1562      C1599   1.477       .  S
C1585      C1586   1.406       .  A
C1585      C1590   1.399       .  A
C1585      H1591   1.084       .  S
C1586      C1587   1.407       .  A
C1587      C1588   1.412       .  A
C1587      H1592   1.083       .  S
C1588      C1589   1.408       .  A
C1588      H1593   1.083       .  S
C1589      C1590   1.405       .  A
C1590      H1594   1.084       .  S
C1595      C1596   1.406       .  A
C1595      C1600   1.403       .  A
C1595      H1601   1.083       .  S
C1596      C1597   1.404       .  A
C1597      C1598   1.403       .  A
C1597      H1602   1.084       .  S
C1598      C1599   1.405       .  A
C1598      H1603   1.083       .  S
C1599      C1600   1.403       .  A
C1600      H1604   1.083       .  S
C1605      C1606   1.220       .  T
C1607      C1608   1.210   1_556  T
C1609      C1610   1.206       .  T
C1611      C1612   1.344       .  D
C1611      H1613   1.088       .  S
C1612      H1614   1.086       .  S
C1615      C1616   1.219       .  T
C1617      C1618   1.221       .  T
C1619      C1620   1.203       .  T
C1621      C1622   1.201       .  T
C1623      C1624   1.348       .  D
C1623      H1625   1.088       .  S
C1624      H1626   1.086   1_545  S
C1627      C1628   1.222       .  T
C1629      C1630   1.401       .  A
C1629      C1634   1.399       .  A
C1629      H1635   1.083       .  S
C1630      C1631   1.406       .  A
C1631      C1632   1.400       .  A
C1631      H1636   1.083       .  S
C1632      C1633   1.403       .  A
C1632      H1637   1.083       .  S
C1633      C1634   1.406       .  A
C1634      H1638   1.083       .  S
C1639      C1640   1.401       .  A
C1639      C1644   1.401       .  A
C1639      H1645   1.083       .  S
C1640      C1641   1.406       .  A
C1641      C1642   1.401       .  A
C1641      H1646   1.083       .  S
C1642      C1643   1.401       .  A
C1642      H1647   1.083       .  S
C1643      C1644   1.407       .  A
C1644      H1648   1.084       .  S
C1649      C1650   1.341       .  D
C1649      H1651   1.084       .  S
C1650      H1652   1.087   1_455  S
C1653      C1654   1.213       .  T
C1655      C1656   1.201       .  T
C1657      C1658   1.346       .  D
C1657      H1659   1.087       .  S
C1658      H1660   1.087       .  S
C1661      C1662   1.202       .  T
C1663      C1664   1.348       .  D
C1663      H1665   1.087       .  S
C1664      H1666   1.086       .  S
C1667      C1668   1.214       .  T
C1669      C1670   1.346       .  D
C1669      H1671   1.087       .  S
C1670      H1672   1.087       .  S
C1673      C1674   1.222       .  T
C1675      C1676   1.199       .  T
C1677      C1678   1.348       .  D
C1677      H1679   1.086       .  S
C1678      H1680   1.087       .  S
C1681      C1682   1.196       .  T
C1683      C1684   1.348       .  D
C1683      H1685   1.086       .  S
C1684      H1686   1.088       .  S
C1687      C1688   1.221       .  T
C1689      C1690   1.409       .  A
C1689      C1694   1.399       .  A
C1689      H1695   1.084       .  S
C1690      C1691   1.402       .  A
C1691      C1692   1.408       .  A
C1691      H1696   1.083       .  S
C1692      C1693   1.411       .  A
C1692      H1697   1.083       .  S
C1693      C1694   1.401       .  A
C1694      H1698   1.084       .  S
C1699      C1700   1.408       .  A
C1699      C1704   1.402       .  A
C1699      H1705   1.083       .  S
C1700      C1701   1.404       .  A
C1701      C1702   1.405       .  A
C1701      H1706   1.083       .  S
C1702      C1703   1.409   1_556  A
C1702      H1707   1.083       .  S
C1703      C1704   1.402   1_554  A
C1704      H1708   1.083   1_556  S
C1709      C1710   1.365   1_554  D
C1709      H1711   1.085       .  S
C1710      H1712   1.088       .  S
C1713      C1714   1.340       .  D
C1713      H1715   1.084       .  S
C1714      H1716   1.086       .  S
C1717      C1718   1.225       .  T
C1719      C1720   1.200       .  T
C1721      C1722   1.365       .  D
C1721      H1723   1.087       .  S
C1722      H1724   1.085       .  S
C1725      C1726   1.345       .  D
C1725      H1727   1.087       .  S
C1726      H1728   1.085       .  S
C1729      C1730   1.195       .  T
C1731      C1732   1.342       .  D
C1731      H1733   1.086       .  S
C1732      H1734   1.089       .  S
C1735      C1736   1.224       .  T
C1737      C1738   1.372       .  D
C1737      H1739   1.085   1_565  S
C1738      H1740   1.088       .  S
C1741      C1742   1.338       .  D
C1741      H1743   1.087       .  S
C1742      H1744   1.088       .  S
C1745      C1746   1.212       .  T
C1747      C1748   1.204       .  T
C1749      C1750   1.374       .  D
C1749      H1751   1.085       .  S
C1750      H1752   1.088       .  S
C1753      C1754   1.346       .  D
C1753      H1755   1.087       .  S
C1754      H1756   1.087       .  S
C1757      C1758   1.212       .  T
C1759      C1760   1.347       .  D
C1759      H1761   1.089       .  S
C1760      H1762   1.086       .  S
C1763      C1764   1.217       .  T
C1765      C1766   1.407       .  A
C1765      C1770   1.404       .  A
C1765      H1771   1.083       .  S
C1766      C1767   1.401       .  A
C1767      C1768   1.398       .  A
C1767      H1772   1.084       .  S
C1768      C1769   1.406       .  A
C1768      H1773   1.084       .  S
C1769      C1770   1.403       .  A
C1770      H1774   1.083       .  S
C1775      C1776   1.407       .  A
C1775      C1780   1.401       .  A
C1775      H1781   1.083       .  S
C1776      C1777   1.401       .  A
C1777      C1778   1.399       .  A
C1777      H1782   1.083       .  S
C1778      C1779   1.406       .  A
C1778      H1783   1.083       .  S
C1779      C1780   1.402       .  A
C1780      H1784   1.083       .  S
C1785      C1786   1.370       .  D
C1785      H1787   1.086       .  S
C1786      H1788   1.085       .  S
C1789      C1790   1.346       .  D
C1789      H1791   1.086       .  S
C1790      H1792   1.086       .  S
C1793      C1794   1.343       .  D
C1793      H1795   1.086       .  S
C1794      H1796   1.087       .  S
C1797      C1798   1.213       .  T
C1799      C1800   1.197       .  T
C1801      C1802   1.369   1_665  D
C1801      H1803   1.087       .  S
C1802      H1804   1.085       .  S
C1805      C1806   1.342   1_565  D
C1805      H1807   1.087       .  S
C1806      H1808   1.087       .  S
C1809      C1810   1.341       .  D
C1809      H1811   1.086       .  S
C1810      H1812   1.087       .  S
C1813      C1814   1.191       .  T
C1815      C1816   1.351       .  D
C1815      H1817   1.088       .  S
C1816      H1818   1.086       .  S
C1819      C1820   1.221       .  T
C1821      C1822   1.344       .  D
C1821      H1823   1.087       .  S
C1822      H1824   1.086       .  S
C1825      C1826   1.342       .  D
C1825      H1827   1.087       .  S
C1826      H1828   1.087       .  S
C1829      C1830   1.372       .  D
C1829      H1831   1.085       .  S
C1830      H1832   1.087       .  S
C1833      C1834   1.212       .  T
C1835      C1836   1.196       .  T
C1837      C1838   1.370       .  D
C1837      H1839   1.086       .  S
C1838      H1840   1.086       .  S
C1841      C1842   1.346       .  D
C1841      H1843   1.082       .  S
C1842      H1844   1.087   1_554  S
C1845      C1846   1.343       .  D
C1845      H1847   1.086       .  S
C1846      H1848   1.086       .  S
C1849      C1850   1.199       .  T
C1851      C1852   1.351       .  D
C1851      H1853   1.086       .  S
C1852      H1854   1.086       .  S
C1855      C1856   1.212   1_554  T
