geometry optimzed in LAMMPS
_audit_creation_date              2020-11-30 
_audit_creation_method            'lammps2cif' 
_symmetry_space_group_name_H-M    'P1' 
_symmetry_Int_Tables_number       1 
_symmetry_cell_setting            triclinic 
loop_ 
_symmetry_equiv_pos_as_xyz 
  x,y,z 
_cell_length_a                    57.3780024 
_cell_length_b                    57.57698477259531 
_cell_length_c                    43.91078846181942 
_cell_angle_alpha                 89.2338513405661 
_cell_angle_beta                  89.48655327199788 
_cell_angle_gamma                 89.50811229211949 
loop_ 
_atom_site_label 
_atom_site_type_symbol 
_atom_site_fract_x 
_atom_site_fract_y 
_atom_site_fract_z 
_atom_site_charge 
Zr1        Zr  0.40381183  0.63078391  0.09946302     2.17500
O2          O  0.39250312  0.65831129  0.13879151    -0.52100
O3          O  0.36980867  0.64718960  0.07183185    -0.75300
O4          O  0.42181358  0.66931619  0.09127285    -0.82100
O5          O  0.35911388  0.58714731  0.12320034    -0.83800
O6          O  0.45056735  0.66376903  0.05640339    -0.79500
O7          O  0.38277129  0.61356956  0.14140369    -0.91100
O8          O  0.36775241  0.62966315  0.02580838    -0.77100
O9          O  0.41869143  0.63074951  0.04906620    -0.86600
O10         O  0.38317914  0.60101632  0.07337691    -0.86300
O11         O  0.44478380  0.62230306  0.10654680    -0.73000
O12         O  0.41280011  0.59432671  0.12568289    -0.85100
Zr13       Zr  0.44719514  0.55830434  0.05269011     2.26400
Zr14       Zr  0.45918727  0.62261634  0.05552806     2.06300
Zr15       Zr  0.39110650  0.56489417  0.09969186     2.10000
Zr16       Zr  0.39832603  0.60110832  0.02312794     1.78800
O17         O  0.38294399  0.54899993  0.15032738    -0.93900
O18         O  0.40394001  0.62759046  0.97991369    -0.41800
O19         O  0.40596685  0.56479739  0.04839349    -0.78400
O20         O  0.43899132  0.59418029  0.02678941    -0.97100
O21         O  0.46914692  0.58625654  0.07927269    -0.90400
O22         O  0.43164812  0.55740686  0.10306772    -0.93200
C23         C  0.36049063  0.64419636  0.04550014     1.00500
C24         C  0.36224598  0.60621617  0.13727415     1.13500
C25         C  0.43711594  0.67696224  0.07201865     1.04200
O26         O  0.47550181  0.64699060  0.01507963    -0.95400
O27         O  0.48448304  0.60450569  0.01909103    -0.91100
O28         O  0.47908451  0.56565411  0.01759890    -0.84300
C29         C  0.48863330  0.58444832  0.00800942     1.10900
O30         O  0.46184887  0.60910394  0.17283290    -0.97400
Zr31       Zr  0.45382145  0.58439730  0.12958125     1.88900
O32         O  0.47403318  0.53331489  0.08142422    -0.74000
O33         O  0.49319401  0.63326167  0.08490663    -0.53300
O34         O  0.49562382  0.59125798  0.12912301    -0.97900
O35         O  0.44344366  0.56824294  0.17941743    -0.55200
O36         O  0.47038893  0.54363794  0.13097556    -0.74500
C37         C  0.47624736  0.52888238  0.11006320     0.97800
O38         O  0.44558727  0.53731789  0.00492583    -0.63300
O39         O  0.35804266  0.54634197  0.07590896    -0.58100
O40         O  0.43089957  0.52094106  0.06039225    -0.94800
O41         O  0.40078756  0.52300723  0.09412872    -0.93200
O42         O  0.36363795  0.57922174  0.01076582    -0.93600
O43         O  0.40383106  0.58251664  0.97405539    -0.92400
C44         C  0.41626724  0.51159960  0.07855984     1.16700
H45         H  0.36655291  0.60354839  0.07289361     0.32600
H46         H  0.44446488  0.59381095  0.00596417     0.43500
H47         H  0.43310156  0.54265009  0.11335458     0.37000
H48         H  0.45185461  0.63455227  0.11798884     0.33500
H49         H  0.40409146  0.64123887  0.49900295     0.25300
H50         H  0.50527154  0.63690474  0.06936279     0.31200
H51         H  0.50160028  0.58205264  0.14662818     0.37100
H52         H  0.35411774  0.59000711  0.99817059     0.31600
H53         H  0.34674113  0.55912050  0.07213886     0.30400
H54         H  0.38218384  0.53197816  0.14769459     0.32100
H55         H  0.45850233  0.56379427  0.18878477     0.31100
H56         H  0.40265284  0.56169727  0.49193091     0.35100
H57         H  0.42917128  0.53246214  0.00292452     0.27800
H58         H  0.38582762  0.67192729  0.12784073     0.32100
H59         H  0.44945966  0.62117908  0.17233178     0.34900
H60         H  0.36374815  0.54203745  0.05537391     0.27500
H61         H  0.45433330  0.52268554  0.00842544     0.40400
H62         H  0.46514043  0.64462490  0.99748223     0.30400
H63         H  0.40602308  0.64306175  0.98903032     0.38100
H64         H  0.43594235  0.55325315  0.17496373     0.29900
H65         H  0.48908751  0.64849322  0.09378489     0.30000
H66         H  0.40728539  0.66384298  0.14749025     0.30200
Zr67       Zr  0.42483106  0.82113021  0.00505082     2.17500
O68         O  0.44081655  0.79902348  0.47749074    -0.52100
O69         O  0.38840668  0.80175007  0.02130995    -0.75300
O70         O  0.43740893  0.78324091  0.02383316    -0.82100
O71         O  0.37986146  0.85931720  0.97475973    -0.83800
O72         O  0.46075539  0.78986942  0.06402768    -0.79500
O73         O  0.40017572  0.82705082  0.96204995    -0.91100
O74         O  0.37998398  0.81525543  0.06864826    -0.77100
O75         O  0.43278745  0.81960597  0.05775375    -0.86600
O76         O  0.39799349  0.84765656  0.02811491    -0.86300
O77         O  0.46493696  0.83326993  0.00842940    -0.73000
O78         O  0.43314629  0.85843936  0.98157550    -0.85100
Zr79       Zr  0.45276420  0.89545520  0.06427824     2.26400
Zr80       Zr  0.47222938  0.83134741  0.06200221     2.06300
Zr81       Zr  0.40547639  0.88421009  0.00470076     2.10000
Zr82       Zr  0.40640695  0.84570322  0.08082406     1.78800
O83         O  0.40527991  0.90237712  0.46990848    -0.93900
O84         O  0.41792727  0.81555739  0.11730148    -0.41800
O85         O  0.41319900  0.88295653  0.05840758    -0.78400
O86         O  0.44547418  0.85764403  0.08683033    -0.97100
O87         O  0.48057041  0.86972536  0.04189532    -0.90400
O88         O  0.44427673  0.89785079  0.01111017    -0.93200
C89         C  0.37581000  0.80252956  0.04577903     1.00500
C90         C  0.38187270  0.83971944  0.96114935     1.13500
C91         C  0.44887881  0.77615943  0.04719012     1.04200
O92         O  0.49527481  0.80535284  0.09434738    -0.95400
O93         O  0.48736241  0.84807366  0.10819301    -0.91100
O94         O  0.47654592  0.88612386  0.10882658    -0.84300
C95         C  0.48623677  0.86801094  0.12082591     1.10900
O96         O  0.48994377  0.85991761  0.47867061    -0.97400
Zr97       Zr  0.47241125  0.87246105  0.98881977     1.88900
O98         O  0.47587693  0.92556036  0.03769106    -0.74000
O99         O  0.50946364  0.82555589  0.03597948    -0.53300
O100        O  0.50650479  0.87901647  0.53012394    -0.97900
O101        O  0.46223675  0.89658826  0.46736594    -0.55200
O102        O  0.48600481  0.91351631  0.99046944    -0.74500
C103        C  0.48463530  0.92939993  0.01097875     0.97800
O104        O  0.46114525  0.92481020  0.10236513    -0.63300
O105        O  0.36605011  0.90014734  0.00081983    -0.58100
O106        O  0.41866608  0.91988337  0.07270149    -0.94800
O107        O  0.39463550  0.91944104  0.03182680    -0.93200
O108        O  0.36593852  0.85491433  0.09317613    -0.93600
O109        O  0.39985999  0.86454931  0.12966639    -0.92400
C110        C  0.40106746  0.92739224  0.05753834     1.16700
H111        H  0.38176949  0.84416076  0.02523863     0.32600
H112        H  0.44655664  0.85720912  0.10866937     0.43500
H113        H  0.44420441  0.91345420  0.00286119     0.37000
H114        H  0.47477121  0.82219496  0.99798140     0.33500
H115        H  0.42465695  0.82389515  0.13467356     0.25300
H116        H  0.52128133  0.83031095  0.05091650     0.31200
H117        H  0.50787541  0.89179656  0.54485157     0.37100
H118        H  0.36166367  0.84416768  0.11008753     0.31600
H119        H  0.36237762  0.90046789  0.97882567     0.30400
H120        H  0.40206665  0.91878429  0.47510824     0.32100
H121        H  0.45488117  0.91188746  0.47129843     0.31100
H122        H  0.41523388  0.87011682  0.13629370     0.35100
H123        H  0.47691982  0.93052103  0.09724930     0.27800
H124        H  0.43299877  0.78374770  0.47795857     0.32100
H125        H  0.47935316  0.84957729  0.46756184     0.34900
H126        H  0.35579286  0.88804802  0.00975326     0.27500
H127        H  0.45087745  0.93835105  0.09822976     0.40400
H128        H  0.48574473  0.80288196  0.11301234     0.30400
H129        H  0.40307684  0.80918645  0.12527554     0.38100
H130        H  0.45015649  0.88776526  0.45661156     0.29900
H131        H  0.51132376  0.80848100  0.03469686     0.30000
H132        H  0.45695123  0.79567301  0.48414224     0.30200
Zr133      Zr  0.04732130  0.82065803  0.32077007     2.17500
O134        O  0.05848347  0.79245398  0.36009687    -0.52100
O135        O  0.07217724  0.80455467  0.27858310    -0.75300
O136        O  0.02585628  0.78476812  0.31628458    -0.82100
O137        O  0.09997718  0.85878277  0.33458458    -0.83800
O138        O  0.98982709  0.79407150  0.29859592    -0.79500
O139        O  0.08741684  0.82144066  0.33565215    -0.91100
O140        O  0.06899927  0.82849386  0.23718772    -0.77100
O141        O  0.02317751  0.82665990  0.27761784    -0.86600
O142        O  0.06447549  0.85190470  0.29355887    -0.86300
O143        O  0.00997248  0.83159996  0.34300409    -0.73000
O144        O  0.04685084  0.85271773  0.35627569    -0.85100
Zr145      Zr  0.00476182  0.90122491  0.30349750     2.26400
Zr146      Zr  0.98584119  0.83686016  0.29909247     1.99900
Zr147      Zr  0.06565128  0.88324416  0.32811200     2.10000
Zr148      Zr  0.04089563  0.85836639  0.25057113     1.78800
O149        O  0.08170181  0.89087184  0.37809405    -0.93900
O150        O  0.02238780  0.83868437  0.20848958    -0.41800
O151        O  0.04256552  0.89111997  0.28383136    -0.78400
O152        O  0.00365972  0.86838703  0.27009457    -0.97100
O153        O  0.98557608  0.87085288  0.33103047    -0.90400
O154        O  0.02856879  0.89506994  0.34670164    -0.93200
C155        C  0.07811179  0.81104321  0.25118734     1.00500
C156        C  0.10339362  0.83677048  0.33673643     1.13500
C157        C  0.00556179  0.77924156  0.30699226     1.04200
O158        O  0.96056937  0.82012585  0.26104518    -0.95400
O159        O  0.95738085  0.86115185  0.27240498    -0.91100
O160        O  0.96465374  0.88926885  0.30394707    -0.84300
C161        C  0.95563544  0.88253189  0.27934039     1.10900
O162        O  0.00480144  0.83868349  0.41676676    -0.97400
Zr163      Zr  0.00887273  0.86637575  0.37467855     1.88900
O164        O  0.98798115  0.92661217  0.34104782    -0.74000
O165        O  0.95694719  0.82753376  0.33826910    -0.53300
O166        O  0.96870480  0.85921718  0.39033095    -0.97900
O167        O  0.03121337  0.87486175  0.42003832    -0.55200
O168        O  0.99465538  0.90783311  0.38608148    -0.74500
C169        C  0.98807816  0.92613103  0.37019654     0.97800
O170        O  0.99395028  0.92643189  0.26090525    -0.63300
O171        O  0.09776163  0.90086593  0.29967214    -0.58100
O172        O  0.02747890  0.93566148  0.31070416    -0.94800
O173        O  0.06270038  0.92525955  0.33002258    -0.93200
O174        O  0.07485164  0.87660447  0.22720255    -0.93600
O175        O  0.02892934  0.88634399  0.21150818    -0.92400
C176        C  0.04748716  0.94047476  0.32159799     1.16700
H177        H  0.08008433  0.84849785  0.28661907     0.32600
H178        H  0.99483835  0.87252839  0.25227507     0.43500
H179        H  0.03051424  0.90854880  0.35914815     0.37000
H180        H  0.00417541  0.81864410  0.35497157     0.33500
H181        H  0.03212670  0.84256569  0.19042668     0.25300
H182        H  0.94297171  0.83672297  0.33250580     0.31200
H183        H  0.96205950  0.87473860  0.39477743     0.37100
H184        H  0.07749096  0.89065338  0.23939913     0.31600
H185        H  0.09035506  0.91200341  0.28528229     0.30400
H186        H  0.07172855  0.90340935  0.38646647     0.32100
H187        H  0.03527584  0.89147588  0.41781339     0.31100
H188        H  0.03402529  0.90157805  0.21910776     0.35100
H189        H  0.98824676  0.94088181  0.27053188     0.27800
H190        H  0.06307931  0.77819611  0.34909392     0.32100
H191        H  0.01695955  0.82674708  0.41289693     0.34900
H192        H  0.10579324  0.91070909  0.31455696     0.27500
H193        H  0.00895335  0.93082918  0.25123651     0.40400
H194        H  0.94951260  0.81030144  0.27277565     0.30400
H195        H  0.02542758  0.82194848  0.21228892     0.38100
H196        H  0.04619368  0.86646200  0.41722109     0.29900
H197        H  0.95264776  0.81121814  0.33444910     0.30000
H198        H  0.04385513  0.78843177  0.37097886     0.30200
Zr199      Zr  0.05475928  0.64378639  0.27211478     2.17500
O200        O  0.04640591  0.66887448  0.22827892    -0.52100
O201        O  0.08148156  0.66786754  0.30409111    -0.75300
O202        O  0.02989981  0.67695715  0.28168526    -0.82100
O203        O  0.11228033  0.61842476  0.26156467    -0.83800
O204        O  0.99802816  0.66348296  0.30725261    -0.79500
O205        O  0.08892018  0.64516444  0.24074744    -0.91100
O206        O  0.08247353  0.65116293  0.35139819    -0.77100
O207        O  0.03649904  0.63895344  0.32020395    -0.86600
O208        O  0.08065440  0.62026376  0.30156823    -0.86300
O209        O  0.01915952  0.62328016  0.26053937    -0.73000
O210        O  0.05784106  0.60811544  0.24297500    -0.85100
Zr211      Zr  0.03225328  0.56103162  0.31508912     2.26400
Zr212      Zr  0.00083199  0.62037170  0.30926141     2.06300
Zr213      Zr  0.08536479  0.58603238  0.27164491     2.10000
Zr214      Zr  0.06210639  0.61526358  0.34951399     1.78800
O215        O  0.08841528  0.57133569  0.22008565    -0.93900
O216        O  0.04391906  0.63774505  0.39008842    -0.41800
O217        O  0.06803958  0.58085280  0.32141052    -0.78400
O218        O  0.02612162  0.59733151  0.34117916    -0.97100
O219        O  0.00476150  0.58271787  0.28583217    -0.90400
O220        O  0.05039089  0.56367296  0.26616377    -0.93200
C221        C  0.08878246  0.66665387  0.33205062     1.00500
C222        C  0.10863021  0.63906063  0.25102185     1.13500
C223        C  0.01043524  0.68008330  0.29560305     1.04200
O224        O  0.98064037  0.63556073  0.35383733    -0.95400
O225        O  0.97626936  0.59189518  0.33431054    -0.91100
O226        O  0.99975463  0.56247243  0.34990363    -0.84300
C227        C  0.98209279  0.57593530  0.35339596     1.10900
O228        O  0.01597890  0.60372274  0.18803038    -0.97400
Zr229      Zr  0.02268743  0.58488574  0.23722299     1.88900
O230        O  0.01691252  0.52941878  0.28685316    -0.74000
O231        O  0.96698488  0.62744183  0.27730714    -0.53300
O232        O  0.98159651  0.58900222  0.22480222    -0.97900
O233        O  0.04263638  0.56656143  0.19434812    -0.55200
O234        O  0.00902809  0.54300402  0.23943526    -0.74500
C235        C  0.00925681  0.52653273  0.26006948     0.97800
O236        O  0.02604492  0.52931187  0.35154084    -0.63300
O237        O  0.12552282  0.57225847  0.26616550    -0.58100
O238        O  0.06842827  0.54213778  0.32983579    -0.94800
O239        O  0.09919280  0.55279406  0.30010750    -0.93200
O240        O  0.09950193  0.60324463  0.37032894    -0.93600
O241        O  0.06084804  0.59092958  0.39535585    -0.92400
C242        C  0.09006771  0.54126476  0.32214004     1.16700
H243        H  0.09541353  0.62705111  0.30634399     0.32600
H244        H  0.01989730  0.59595811  0.36158534     0.43500
H245        H  0.05388807  0.54854869  0.25795012     0.37000
H246        H  0.00963687  0.63305952  0.24754059     0.33500
H247        H  0.03686473  0.65142205  0.37969335     0.25300
H248        H  0.95968537  0.61202000  0.27541118     0.31200
H249        H  0.97359802  0.57744202  0.23801478     0.37100
H250        H  0.10199869  0.61367826  0.38772524     0.31600
H251        H  0.13103887  0.57842100  0.24623244     0.30400
H252        H  0.09369028  0.55501447  0.22272905     0.32100
H253        H  0.03003593  0.56121345  0.18094276     0.31100
H254        H  0.05504480  0.57575119  0.38843771     0.35100
H255        H  0.03324371  0.51543652  0.34214458     0.27800
H256        H  0.03002030  0.66550043  0.22322366     0.32100
H257        H  0.02714158  0.61674140  0.18728342     0.34900
H258        H  0.13451261  0.58088207  0.28142901     0.27500
H259        H  0.03596607  0.53276131  0.36924022     0.40400
H260        H  0.98975067  0.62966268  0.37139791     0.30400
H261        H  0.03043135  0.62840088  0.39703566     0.38100
H262        H  0.04934052  0.55197975  0.20280685     0.29900
H263        H  0.95605032  0.63630787  0.29039533     0.30000
H264        H  0.05530844  0.66217291  0.21105376     0.30200
Zr265      Zr  0.26326591  0.74468994  0.46755032     2.17500
O266        O  0.28137541  0.76819663  0.00770489    -0.52100
O267        O  0.28611221  0.71631568  0.98664011    -0.75300
O268        O  0.24181897  0.74392637  0.01639225    -0.82100
O269        O  0.30641666  0.76857386  0.40668716    -0.83800
O270        O  0.20396851  0.73283920  0.01269874    -0.79500
O271        O  0.29617745  0.77038092  0.45685010    -0.91100
O272        O  0.27678114  0.68066106  0.46493772    -0.77100
O273        O  0.23599944  0.71403851  0.46408121    -0.86600
O274        O  0.27757772  0.72185260  0.42618876    -0.86300
O275        O  0.22549957  0.76237923  0.46123703    -0.73000
O276        O  0.26364597  0.76949639  0.42384308    -0.85100
Zr277      Zr  0.21307845  0.73555376  0.37161438     2.26400
Zr278      Zr  0.19815828  0.73099507  0.45476675     2.06300
Zr279      Zr  0.27657332  0.74651415  0.38152757     2.10000
Zr280      Zr  0.25017188  0.69123818  0.42335592     1.78800
O281        O  0.29621773  0.77448705  0.34828674    -0.93900
O282        O  0.22953568  0.66163728  0.45297050    -0.41800
O283        O  0.24949647  0.71552610  0.37815231    -0.78400
O284        O  0.21255993  0.70833125  0.41337516    -0.97100
O285        O  0.19921034  0.75774691  0.41303026    -0.90400
O286        O  0.24009362  0.76623478  0.37451389    -0.93200
C287        C  0.28876182  0.69197619  0.48437488     1.00500
C288        C  0.30906018  0.77609281  0.43379612     1.13500
C289        C  0.22214076  0.73813245  0.02820965     1.04200
O290        O  0.18309664  0.69615652  0.47972174    -0.95400
O291        O  0.16472414  0.71793282  0.42251461    -0.91100
O292        O  0.17353454  0.72462574  0.37250962    -0.84300
C293        C  0.15993772  0.71761294  0.39360313     1.10900
O294        O  0.23630635  0.81645303  0.45589904    -0.97400
Zr295      Zr  0.22704298  0.78783357  0.41763800     1.88900
O296        O  0.18916747  0.76853967  0.35616594    -0.74000
O297        O  0.16635882  0.75624201  0.47138980    -0.53300
O298        O  0.19312829  0.80935485  0.43601510    -0.97900
O299        O  0.25248879  0.81859175  0.39877861    -0.55200
O300        O  0.20475842  0.80111601  0.37504331    -0.74500
C301        C  0.18962811  0.79061598  0.35932850     0.97800
O302        O  0.19930392  0.70638637  0.33632689    -0.63300
O303        O  0.30890080  0.71963364  0.37274259    -0.58100
O304        O  0.23041706  0.74028901  0.32269211    -0.94800
O305        O  0.26974523  0.74024177  0.32657749    -0.93200
O306        O  0.28145155  0.67009858  0.39785564    -0.93600
O307        O  0.23702638  0.66004612  0.39092388    -0.92400
C308        C  0.25082031  0.73994139  0.31099931     1.16700
H309        H  0.29324776  0.71617609  0.42952658     0.32600
H310        H  0.20195384  0.69588406  0.40911150     0.43500
H311        H  0.24037993  0.77581502  0.35628294     0.37000
H312        H  0.21850628  0.77173400  0.98136539     0.33500
H313        H  0.22709304  0.66850410  0.47331578     0.25300
H314        H  0.15568475  0.75868433  0.96050130     0.31200
H315        H  0.17973067  0.79905695  0.43239972     0.37100
H316        H  0.28276183  0.67761317  0.37750631     0.31600
H317        H  0.30719997  0.71481708  0.35132372     0.30400
H318        H  0.30878955  0.76549592  0.33813798     0.32100
H319        H  0.24200423  0.82968366  0.38809751     0.31100
H320        H  0.22673889  0.66780569  0.37585415     0.35100
H321        H  0.19442089  0.71493339  0.31768887     0.27800
H322        H  0.28507666  0.75634375  0.02352554     0.32100
H323        H  0.24207517  0.80728200  0.47354530     0.34900
H324        H  0.32294782  0.72950801  0.37257327     0.27500
H325        H  0.21339303  0.69750553  0.33019392     0.40400
H326        H  0.18020010  0.68524573  0.46296919     0.30400
H327        H  0.21375072  0.66112848  0.44410163     0.38100
H328        H  0.26185124  0.81134696  0.38235235     0.29900
H329        H  0.15598398  0.74367745  0.99051600     0.30000
H330        H  0.26926842  0.77826112  0.01700273     0.30200
Zr331      Zr  0.25885209  0.71975418  0.12215173     2.17500
O332        O  0.26461143  0.68808095  0.08638877    -0.52100
O333        O  0.28980495  0.74205327  0.09865935    -0.75300
O334        O  0.24111707  0.72839104  0.07329253    -0.82100
O335        O  0.29477500  0.69014776  0.18520488    -0.83800
O336        O  0.20461631  0.74394656  0.07791121    -0.79500
O337        O  0.28734693  0.68921330  0.13446584    -0.91100
O338        O  0.28524728  0.77859334  0.11667624    -0.77100
O339        O  0.23900591  0.75630769  0.12219591    -0.86600
O340        O  0.27780132  0.74146287  0.16064326    -0.86300
O341        O  0.21816120  0.71232220  0.13095796    -0.73000
O342        O  0.25391585  0.69890386  0.16881613    -0.85100
Zr343      Zr  0.21219275  0.74896817  0.21755817     2.26400
Zr344      Zr  0.19838611  0.74945447  0.13324372     2.06300
Zr345      Zr  0.27164778  0.72104567  0.20792316     2.10000
Zr346      Zr  0.25801235  0.77794757  0.15996641     1.78800
O347        O  0.28046709  0.69043976  0.24498293    -0.93900
O348        O  0.24269502  0.81003257  0.12926845    -0.41800
O349        O  0.25237019  0.75801407  0.20795940    -0.78400
O350        O  0.21732746  0.77162607  0.17162528    -0.97100
O351        O  0.19384173  0.72722154  0.17902493    -0.90400
O352        O  0.23171863  0.71257329  0.21742659    -0.93200
C353        C  0.29496484  0.76364105  0.09898225     1.00500
C354        C  0.29764552  0.68150953  0.15860619     1.13500
C355        C  0.22211917  0.73652753  0.06197087     1.04200
O356        O  0.18775790  0.78579608  0.10770573    -0.95400
O357        O  0.16454396  0.76592674  0.16332601    -0.91100
O358        O  0.17407797  0.76602601  0.21358668    -0.84300
C359        C  0.15997115  0.77024127  0.19180816     1.10900
O360        O  0.21947345  0.65823696  0.14408846    -0.97400
Zr361      Zr  0.21420617  0.69111194  0.17782460     1.88900
O362        O  0.18576835  0.72233345  0.24435558    -0.74000
O363        O  0.16513646  0.72837369  0.11404541    -0.53300
O364        O  0.17619981  0.67759946  0.16173665    -0.97900
O365        O  0.22999752  0.65710556  0.20434963    -0.55200
O366        O  0.19113110  0.68704536  0.22261818    -0.74500
C367        C  0.18181578  0.70046186  0.24216509     0.97800
O368        O  0.20682758  0.78438012  0.24688979    -0.63300
O369        O  0.30964058  0.73885632  0.21405425    -0.58100
O370        O  0.23096647  0.74509255  0.26593765    -0.94800
O371        O  0.26811569  0.73154256  0.26194378    -0.93200
O372        O  0.29500505  0.79252971  0.17834545    -0.93600
O373        O  0.25564519  0.81295579  0.19042345    -0.92400
C374        C  0.25058114  0.73909348  0.27745765     1.16700
H375        H  0.29429952  0.74291976  0.15662121     0.32600
H376        H  0.20950800  0.78645216  0.17374189     0.43500
H377        H  0.23028903  0.70458336  0.23682474     0.37000
H378        H  0.21198683  0.70328636  0.11453958     0.33500
H379        H  0.25573892  0.82112828  0.12749043     0.25300
H380        H  0.15753102  0.72171659  0.13247107     0.31200
H381        H  0.17333264  0.66343097  0.17420313     0.37100
H382        H  0.30454921  0.77855316  0.18294836     0.31600
H383        H  0.30998997  0.74365210  0.23560766     0.30400
H384        H  0.29658226  0.69357385  0.25157327     0.32100
H385        H  0.22986199  0.66123653  0.22616184     0.31100
H386        H  0.24008460  0.81234611  0.20030188     0.35100
H387        H  0.22241486  0.78798539  0.25498590     0.27800
H388        H  0.27321941  0.69492783  0.06884900     0.32100
H389        H  0.23499350  0.66067008  0.13457703     0.34900
H390        H  0.32093361  0.72581385  0.21288989     0.27500
H391        H  0.20401471  0.79680081  0.23150708     0.40400
H392        H  0.19551313  0.79800545  0.11949358     0.30400
H393        H  0.24119575  0.80363154  0.10856933     0.38100
H394        H  0.24673839  0.65679420  0.19868343     0.29900
H395        H  0.15422326  0.74064741  0.10688616     0.30000
H396        H  0.24895293  0.68452286  0.07846667     0.30200
Zr397      Zr  0.55659111  0.93785067  0.19620383     2.17500
O398        O  0.52436620  0.92967500  0.16247716    -0.52100
O399        O  0.52952340  0.96795709  0.21236650    -0.75300
O400        O  0.53169396  0.91208548  0.22650241    -0.82100
O401        O  0.59482679  0.96311490  0.13527201    -0.83800
O402        O  0.55030143  0.87940154  0.23902495    -0.79500
O403        O  0.56019265  0.94464740  0.14095619    -0.91100
O404        O  0.54227441  0.98018314  0.25806367    -0.77100
O405        O  0.56306537  0.93319706  0.24938071    -0.86600
O406        O  0.57876897  0.97165260  0.20821123    -0.86300
O407        O  0.57693880  0.90123471  0.20221114    -0.73000
O408        O  0.59331224  0.93650224  0.17173829    -0.85100
Zr409      Zr  0.64267024  0.92811977  0.23915260     2.26400
Zr410      Zr  0.58543121  0.89794906  0.25633692     2.06300
Zr411      Zr  0.61615098  0.96919181  0.18214356     2.10000
Zr412      Zr  0.58432631  0.96694447  0.26168682     1.78800
O413        O  0.62758603  0.99459467  0.13975967    -0.93900
O414        O  0.56888944  0.96007084  0.31286906    -0.41800
O415        O  0.62200836  0.96487020  0.23540974    -0.78400
O416        O  0.60734454  0.93155371  0.26990428    -0.97100
O417        O  0.61958916  0.89591102  0.22528514    -0.90400
O418        O  0.63584437  0.93244130  0.18631909    -0.93200
C419        C  0.52656190  0.97945363  0.23695416     1.00500
C420        C  0.57632393  0.95395465  0.12434338     1.13500
C421        C  0.53293874  0.88994041  0.22709961     1.04200
O422        O  0.57505577  0.90641905  0.30897007    -0.95400
O423        O  0.62060878  0.87381986  0.26369045    -0.91100
O424        O  0.64747235  0.89906640  0.27843430    -0.84300
C425        C  0.64106943  0.87831271  0.27375805     1.10900
O426        O  0.58947755  0.89574524  0.12673475    -0.97400
Zr427      Zr  0.61214827  0.90047750  0.17286892     1.88900
O428        O  0.66857805  0.89819461  0.21530662    -0.74000
O429        O  0.57654727  0.86248922  0.28510452    -0.53300
O430        O  0.59944342  0.86069968  0.16549279    -0.97900
O431        O  0.63710757  0.90827992  0.12874664    -0.55200
O432        O  0.64631646  0.87781567  0.18280769    -0.74500
C433        C  0.66520812  0.88097095  0.19721101     0.97800
O434        O  0.66884486  0.94274220  0.27772620    -0.63300
O435        O  0.61023660  0.00874144  0.20002161    -0.58100
O436        O  0.67386467  0.95153911  0.21813570    -0.94800
O437        O  0.65938803  0.97139568  0.17751906    -0.93200
O438        O  0.58777728  0.00906482  0.25850555    -0.93600
O439        O  0.60764489  0.98405790  0.30155210    -0.92400
C440        C  0.67661097  0.96366688  0.19363357     1.16700
H441        H  0.57049358  0.98583618  0.20309797     0.32600
H442        H  0.61154316  0.93051250  0.29114223     0.43500
H443        H  0.64998333  0.93123760  0.17439700     0.37000
H444        H  0.56823399  0.88880370  0.19338747     0.33500
H445        H  0.56400200  0.97560398  0.32009226     0.25300
H446        H  0.56031775  0.86425637  0.29263469     0.31200
H447        H  0.61289641  0.85276331  0.15579178     0.37100
H448        H  0.57204873  0.01488022  0.25309991     0.31600
H449        H  0.62505218  0.01677771  0.19533797     0.30400
H450        H  0.61424730  0.00532810  0.13643633     0.32100
H451        H  0.62989025  0.92194526  0.11853422     0.31100
H452        H  0.62395408  0.98006066  0.29604578     0.35100
H453        H  0.66011997  0.94120442  0.29719873     0.27800
H454        H  0.51016225  0.93104197  0.17529282     0.32100
H455        H  0.57304510  0.89757389  0.13342791     0.34900
H456        H  0.59875395  0.01591773  0.18598727     0.27500
H457        H  0.68155369  0.93104259  0.27916426     0.40400
H458        H  0.55784374  0.90783117  0.30894733     0.30400
H459        H  0.55405548  0.95182068  0.30975469     0.38100
H460        H  0.63456510  0.89522676  0.11475223     0.29900
H461        H  0.57581759  0.85009449  0.26973065     0.30000
H462        H  0.52591843  0.91291530  0.15805727     0.30200
Zr463      Zr  0.89194638  0.99442664  0.18247489     2.17500
O464        O  0.91014130  0.01455064  0.22424066    -0.52100
O465        O  0.92129786  0.00937842  0.14766371    -0.75300
O466        O  0.92674029  0.97747875  0.20512857    -0.82100
O467        O  0.83653372  0.02862915  0.19547403    -0.83800
O468        O  0.92567615  0.95060176  0.17055722    -0.79500
O469        O  0.87445322  0.03314415  0.18415656    -0.91100
O470        O  0.91835718  0.98569790  0.10732055    -0.77100
O471        O  0.90031606  0.96477045  0.14622101    -0.86600
O472        O  0.86629492  0.00312847  0.14099402    -0.86300
O473        O  0.88396201  0.95712258  0.20705717    -0.73000
O474        O  0.85280505  0.99165112  0.20235485    -0.85100
Zr475      Zr  0.82642618  0.93409030  0.15141231     2.26400
Zr476      Zr  0.89042909  0.92801296  0.16885142     2.06300
Zr477      Zr  0.82680231  0.99871440  0.16022655     2.10000
Zr478      Zr  0.87599745  0.97408723  0.10522497     1.78800
O479        O  0.79856374  0.02992128  0.16896709    -0.93900
O480        O  0.89526534  0.94678705  0.07108830    -0.41800
O481        O  0.83567376  0.96963195  0.12368324    -0.78400
O482        O  0.86467909  0.93775065  0.12770545    -0.97100
O483        O  0.85259507  0.92594654  0.19142175    -0.90400
O484        O  0.81938332  0.96327452  0.18802364    -0.93200
C485        C  0.93014442  0.99976235  0.12410863     1.00500
C486        C  0.85609260  0.03849537  0.19936467     1.13500
C487        C  0.93286986  0.95732780  0.19628512     1.04200
O488        O  0.92086084  0.90153625  0.15129141    -0.95400
O489        O  0.87981503  0.89416458  0.13956007    -0.91100
O490        O  0.84094055  0.89827937  0.13074946    -0.84300
C491        C  0.86052525  0.88758912  0.12813789     1.10900
O492        O  0.86242857  0.97829898  0.26849075    -0.97400
Zr493      Zr  0.84586921  0.95550884  0.22791275     1.88900
O494        O  0.81619645  0.90560254  0.19273990    -0.74000
O495        O  0.89719328  0.90445592  0.21454855    -0.53300
O496        O  0.86407585  0.92898496  0.26459452    -0.97900
O497        O  0.81486965  0.97270644  0.25881597    -0.55200
O498        O  0.82111980  0.92267617  0.23841228    -0.74500
C499        C  0.81510599  0.90542837  0.22225620     0.97800
O500        O  0.80008568  0.91915081  0.11313184    -0.63300
O501        O  0.82513279  0.01844339  0.11079609    -0.58100
O502        O  0.78568715  0.94761767  0.15122083    -0.94800
O503        O  0.78566939  0.98647913  0.15920654    -0.93200
O504        O  0.87366032  0.00944954  0.07426794    -0.93600
O505        O  0.85750705  0.96877233  0.05613822    -0.92400
C506        C  0.77505299  0.96699122  0.15649839     1.16700
H507        H  0.86894382  0.01842085  0.13239723     0.32600
H508        H  0.86641256  0.92775016  0.11044627     0.43500
H509        H  0.80429817  0.96248609  0.19776771     0.37000
H510        H  0.89387270  0.95432889  0.22411522     0.33500
H511        H  0.90546222  0.95652223  0.05794673     0.25300
H512        H  0.88150759  0.90002216  0.22200995     0.31200
H513        H  0.87962925  0.93543054  0.26883979     0.37100
H514        H  0.88824907  0.01783274  0.07848660     0.31600
H515        H  0.80916596  0.01563674  0.10338466     0.30400
H516        H  0.78994174  0.03200047  0.14968198     0.32100
H517        H  0.80031412  0.96524445  0.25222947     0.31100
H518        H  0.84419922  0.95839450  0.06062866     0.35100
H519        H  0.79787915  0.90250444  0.11825176     0.27800
H520        H  0.89784241  0.01530792  0.24010717     0.32100
H521        H  0.85635182  0.97125874  0.28762767     0.34900
H522        H  0.82541184  0.03522351  0.11541983     0.27500
H523        H  0.80920720  0.91928178  0.09388907     0.40400
H524        H  0.92487669  0.90716016  0.13050538     0.30400
H525        H  0.90617742  0.93792326  0.08427246     0.38100
H526        H  0.81357102  0.98893963  0.25124559     0.29900
H527        H  0.90394251  0.88973507  0.20693077     0.30000
H528        H  0.91229875  0.03074066  0.21699976     0.30200
Zr529      Zr  0.57796936  0.54564411  0.47746106     2.17500
O530        O  0.54642257  0.56333919  0.50660309    -0.52100
O531        O  0.55310955  0.51629200  0.45915534    -0.75300
O532        O  0.56379511  0.56000482  0.42868728    -0.82100
O533        O  0.60988701  0.51066072  0.53852160    -0.83800
O534        O  0.56456105  0.59606157  0.41438897    -0.79500
O535        O  0.57388632  0.52110446  0.52200764    -0.91100
O536        O  0.57223634  0.50589735  0.41572948    -0.77100
O537        O  0.58916962  0.55007617  0.42555813    -0.86600
O538        O  0.60577697  0.51520108  0.46993540    -0.86300
O539        O  0.59110659  0.58472949  0.46975789    -0.73000
O540        O  0.60913719  0.55196736  0.51177212    -0.85100
Zr541      Zr  0.66372841  0.56609400  0.44693998     2.26400
Zr542      Zr  0.60581546  0.58804116  0.41750361     2.06300
Zr543      Zr  0.63862478  0.52311806  0.50151182     2.10000
Zr544      Zr  0.61471491  0.51927580  0.41736742     1.78800
O545        O  0.65229905  0.50901373  0.55084986    -0.93900
O546        O  0.60527657  0.52615806  0.36399517    -0.41800
O547        O  0.64865760  0.52690738  0.44906733    -0.78400
O548        O  0.63347870  0.55705363  0.41070580    -0.97100
O549        O  0.63523396  0.59569169  0.45392604    -0.90400
O550        O  0.65106947  0.56214329  0.49828830    -0.93200
C551        C  0.55386595  0.50593511  0.43365012     1.00500
C552        C  0.58757919  0.51076262  0.54071134     1.13500
C553        C  0.55303788  0.57928742  0.42548252     1.04200
O554        O  0.59560434  0.58287246  0.36433985    -0.95400
O555        O  0.63686994  0.60780198  0.38919476    -0.91100
O556        O  0.67101045  0.59671317  0.41051924    -0.84300
C557        C  0.65912357  0.60896924  0.39163489     1.10900
O558        O  0.59955940  0.59816533  0.03183448    -0.97400
Zr559      Zr  0.62131338  0.59092353  0.50484646     1.88900
O560        O  0.68423516  0.59439328  0.47944403    -0.74000
O561        O  0.59974491  0.62993826  0.41892749    -0.53300
O562        O  0.61451466  0.63183367  0.49301056    -0.97900
O563        O  0.64174373  0.58306204  0.04986062    -0.55200
O564        O  0.65742139  0.60875107  0.51243119    -0.74500
C565        C  0.67810466  0.60732110  0.50208113     0.97800
O566        O  0.69431106  0.55466098  0.41101439    -0.63300
O567        O  0.64581886  0.48352058  0.48466446    -0.58100
O568        O  0.69658023  0.54686444  0.47007940    -0.94800
O569        O  0.68142403  0.52543339  0.50912671    -0.93200
O570        O  0.61765194  0.47716786  0.42210291    -0.93600
O571        O  0.64346056  0.50187744  0.38327890    -0.92400
C572        C  0.69872596  0.53434495  0.49415443     1.16700
H573        H  0.59920486  0.50014717  0.47453493     0.32600
H574        H  0.63993932  0.55804421  0.39033447     0.43500
H575        H  0.66327938  0.56441209  0.51288093     0.37000
H576        H  0.57860405  0.59572422  0.47330256     0.33500
H577        H  0.60187557  0.51058662  0.35592161     0.25300
H578        H  0.58844362  0.63351028  0.40257797     0.31200
H579        H  0.63133239  0.63716788  0.00858756     0.37100
H580        H  0.60569839  0.47127250  0.40809903     0.31600
H581        H  0.66301758  0.48199565  0.48388931     0.30400
H582        H  0.65776115  0.49290431  0.54732049     0.32100
H583        H  0.65896650  0.58189808  0.04996258     0.31100
H584        H  0.65726605  0.51198851  0.38478675     0.35100
H585        H  0.69348604  0.53749481  0.41054405     0.27800
H586        H  0.54258232  0.55226207  0.52328209     0.32100
H587        H  0.60514436  0.61153762  0.04360397     0.34900
H588        H  0.64099172  0.47354412  0.50210534     0.27500
H589        H  0.68876112  0.55965254  0.39065434     0.40400
H590        H  0.59799262  0.59831711  0.35468653     0.30400
H591        H  0.58993998  0.53416228  0.36447038     0.38100
H592        H  0.63647611  0.56716961  0.05515462     0.29900
H593        H  0.59103920  0.63269144  0.43811171     0.30000
H594        H  0.56209090  0.57460439  0.01087350     0.30200
Zr595      Zr  0.91710997  0.53921485  0.48953082     2.17500
O596        O  0.94032440  0.52866783  0.44514456    -0.52100
O597        O  0.94492996  0.51932644  0.52147631    -0.75300
O598        O  0.94871534  0.56702798  0.49118651    -0.82100
O599        O  0.87230221  0.49550733  0.46844456    -0.83800
O600        O  0.93637648  0.60307799  0.48155880    -0.79500
O601        O  0.91142255  0.50186448  0.46731781    -0.91100
O602        O  0.94382214  0.53667672  0.05211677    -0.77100
O603        O  0.91890698  0.56589444  0.53028064    -0.86600
O604        O  0.89390795  0.52110223  0.52809116    -0.86300
O605        O  0.90166226  0.57516552  0.46938664    -0.73000
O606        O  0.87894119  0.53506285  0.46903234    -0.85100
Zr607      Zr  0.84003161  0.58071608  0.52662668     2.26400
Zr608      Zr  0.90159015  0.60154957  0.51234592     2.06300
Zr609      Zr  0.85492974  0.51880713  0.50842490     2.10000
Zr610      Zr  0.90166496  0.54964694  0.05315857     1.78800
O611        O  0.83394516  0.48373346  0.49519006    -0.93900
O612        O  0.92048350  0.57190546  0.09270064    -0.41800
O613        O  0.85654591  0.54562655  0.54888620    -0.78400
O614        O  0.88236503  0.58558344  0.03750728    -0.97100
O615        O  0.86483911  0.59668904  0.48859270    -0.90400
O616        O  0.83972130  0.55390418  0.48594934    -0.93200
C617        C  0.95184831  0.52453222  0.54806944     1.00500
C618        C  0.89303900  0.49157657  0.45846932     1.13500
C619        C  0.94947396  0.58575662  0.47539981     1.04200
O620        O  0.92383511  0.61521972  0.04768138    -0.95400
O621        O  0.87492425  0.63518161  0.00042414    -0.91100
O622        O  0.85048387  0.61957661  0.03426802    -0.84300
C623        C  0.85637190  0.63630668  0.01689763     1.10900
O624        O  0.88148531  0.54987651  0.40468321    -0.97400
Zr625      Zr  0.86426980  0.57016169  0.44787064     1.88900
O626        O  0.82193035  0.60979252  0.48997672    -0.74000
O627        O  0.91411781  0.64118960  0.50090968    -0.53300
O628        O  0.88076669  0.59504117  0.40806231    -0.97900
O629        O  0.83176574  0.55395291  0.42003380    -0.55200
O630        O  0.83879974  0.60354538  0.44375817    -0.74500
C631        C  0.82575129  0.61547890  0.46156942     0.97800
O632        O  0.82068827  0.58357964  0.05870871    -0.63300
O633        O  0.85848650  0.49406829  0.55366610    -0.58100
O634        O  0.80283912  0.56043493  0.52435292    -0.94800
O635        O  0.81217237  0.52301637  0.51341476    -0.93200
O636        O  0.89856156  0.51167287  0.07784294    -0.93600
O637        O  0.88087698  0.55292958  0.10155501    -0.92400
C638        C  0.79717239  0.53935232  0.51855607     1.16700
H639        H  0.90016074  0.50598791  0.53351236     0.32600
H640        H  0.88097597  0.59505823  0.05543140     0.43500
H641        H  0.82470280  0.55228847  0.47659621     0.37000
H642        H  0.91060708  0.58031631  0.45203919     0.33500
H643        H  0.92614014  0.56009655  0.10755695     0.25300
H644        H  0.93047961  0.64218927  0.50771859     0.31200
H645        H  0.86831406  0.59661475  0.39268279     0.37100
H646        H  0.90981050  0.51213040  0.09478980     0.31600
H647        H  0.84242178  0.49274177  0.56188728     0.30400
H648        H  0.82519456  0.47896964  0.51374727     0.32100
H649        H  0.83544930  0.53716044  0.41863295     0.31100
H650        H  0.86634814  0.56148760  0.09648322     0.35100
H651        H  0.81881342  0.56717820  0.06527262     0.27800
H652        H  0.95653687  0.52741958  0.45246381     0.32100
H653        H  0.89825402  0.54841951  0.40957197     0.34900
H654        H  0.86233005  0.47842481  0.54586942     0.27500
H655        H  0.83111503  0.59003037  0.07427285     0.40400
H656        H  0.94076880  0.61418970  0.04328260     0.30400
H657        H  0.93487812  0.57791525  0.08296404     0.38100
H658        H  0.83365857  0.56002333  0.39896354     0.29900
H659        H  0.91490739  0.64245456  0.47840265     0.30000
H660        H  0.93990601  0.54244009  0.43147536     0.30200
Zr661      Zr  0.76212136  0.77880245  0.27262529     2.17500
O662        O  0.77753737  0.80088678  0.22921951    -0.52100
O663        O  0.73305017  0.80921373  0.26101084    -0.75300
O664        O  0.75971195  0.75894090  0.22473443    -0.82100
O665        O  0.78281402  0.82268289  0.32303496    -0.83800
O666        O  0.74060797  0.72474845  0.22840084    -0.79500
O667        O  0.79458496  0.80356039  0.28188146    -0.91100
O668        O  0.70394294  0.78579891  0.26993749    -0.77100
O669        O  0.72609485  0.75902460  0.27810410    -0.86600
O670        O  0.74345830  0.79581794  0.31625311    -0.86300
O671        O  0.77308542  0.73831631  0.27917997    -0.73000
O672        O  0.78915815  0.77113393  0.31360914    -0.85100
Zr673      Zr  0.74217037  0.72919430  0.36992162     2.26400
Zr674      Zr  0.73625391  0.71906076  0.28411240     2.06300
Zr675      Zr  0.77062994  0.78920530  0.35636959     2.10000
Zr676      Zr  0.70782756  0.77501914  0.32225714     1.78800
O677        O  0.81061808  0.79522116  0.37232458    -0.93900
O678        O  0.66769368  0.76433007  0.31151180    -0.41800
O679        O  0.73384009  0.76970328  0.36379212    -0.78400
O680        O  0.71642896  0.73481568  0.32805619    -0.97100
O681        O  0.76065391  0.71159859  0.32738781    -0.90400
O682        O  0.77859374  0.74850349  0.36520454    -0.93200
C683        C  0.71111792  0.80589082  0.26302996     1.00500
C684        C  0.79198721  0.82257291  0.29603441     1.13500
C685        C  0.75065400  0.74100059  0.21283118     1.04200
O686        O  0.69793222  0.71478695  0.26167150    -0.95400
O687        O  0.71788408  0.68681431  0.31107495    -0.91100
O688        O  0.72274454  0.69241484  0.36203953    -0.84300
C689        C  0.71524666  0.68096546  0.33922430     1.10900
O690        O  0.83063718  0.73526480  0.28961746    -0.97400
Zr691      Zr  0.79707479  0.73022009  0.32347060     1.88900
O692        O  0.76835440  0.70218698  0.39473549    -0.74000
O693        O  0.75302093  0.68349463  0.26352747    -0.53300
O694        O  0.80553760  0.69401109  0.29730958    -0.97900
O695        O  0.83294563  0.74107344  0.34890412    -0.55200
O696        O  0.80129019  0.70125342  0.36622119    -0.74500
C697        C  0.78873710  0.69412994  0.38919891     0.97800
O698        O  0.70866602  0.72218047  0.40318620    -0.63300
O699        O  0.75729295  0.82360842  0.38334175    -0.58100
O700        O  0.74822480  0.74912411  0.41734762    -0.94800
O701        O  0.76617006  0.78408873  0.41170444    -0.93200
O702        O  0.69878087  0.81543188  0.33386151    -0.93600
O703        O  0.67914504  0.77271673  0.36344942    -0.92400
C704        C  0.75714334  0.76771320  0.42806068     1.16700
H705        H  0.74069237  0.81232387  0.31411770     0.32600
H706        H  0.70190904  0.72686978  0.33182522     0.43500
H707        H  0.78770177  0.74631395  0.38342142     0.37000
H708        H  0.78145207  0.73276485  0.26149557     0.33500
H709        H  0.65851632  0.77894613  0.31253220     0.25300
H710        H  0.74066098  0.67718607  0.25047446     0.31200
H711        H  0.79488165  0.68249075  0.30674078     0.37100
H712        H  0.68156010  0.81623061  0.33509846     0.31600
H713        H  0.77155597  0.83282908  0.38636549     0.30400
H714        H  0.80919186  0.80146770  0.39316459     0.32100
H715        H  0.84099856  0.72616403  0.35346197     0.31100
H716        H  0.68764455  0.77748232  0.38183090     0.35100
H717        H  0.71502008  0.71335732  0.42077544     0.27800
H718        H  0.76521471  0.80132892  0.21355679     0.32100
H719        H  0.84126232  0.72204185  0.29414162     0.34900
H720        H  0.74817224  0.83264156  0.36818039     0.27500
H721        H  0.70426381  0.73755242  0.41139827     0.40400
H722        H  0.68728100  0.72343981  0.27536576     0.30400
H723        H  0.66766275  0.76021749  0.28970187     0.38100
H724        H  0.82801395  0.74689767  0.36907734     0.29900
H725        H  0.76533162  0.68867730  0.24909121     0.30000
H726        H  0.79023161  0.79117199  0.22065335     0.30200
Zr727      Zr  0.74267212  0.73529672  0.02261901     2.17500
O728        O  0.70783872  0.72736754  0.49273193    -0.52100
O729        O  0.76849511  0.70700066  0.99950740    -0.75300
O730        O  0.74779976  0.75096878  0.47450899    -0.82100
O731        O  0.72671431  0.68756093  0.07604049    -0.83800
O732        O  0.76581773  0.78586005  0.47617978    -0.79500
O733        O  0.71470151  0.70561886  0.03344283    -0.91100
O734        O  0.79929806  0.72740295  0.01184745    -0.77100
O735        O  0.78089928  0.75069120  0.02594058    -0.86600
O736        O  0.76170965  0.71399332  0.06287077    -0.86300
O737        O  0.73697343  0.77604061  0.03008236    -0.73000
O738        O  0.71892608  0.74203620  0.06677722    -0.85100
Zr739      Zr  0.77095099  0.77816622  0.11979260     2.26400
Zr740      Zr  0.77566766  0.79090496  0.03409377     2.06300
Zr741      Zr  0.73803949  0.72107466  0.10737562     2.10000
Zr742      Zr  0.79913996  0.73032755  0.06687804     1.78800
O743        O  0.69767609  0.71447598  0.12246239    -0.93900
O744        O  0.83778758  0.71512477  0.05421154    -0.41800
O745        O  0.77647182  0.73712574  0.11199528    -0.78400
O746        O  0.79490565  0.77054138  0.07553717    -0.97100
O747        O  0.75287108  0.79905679  0.07902847    -0.90400
O748        O  0.73302345  0.76201812  0.11635315    -0.93200
C749        C  0.79058192  0.70946288  0.00000639     1.00500
C750        C  0.71852311  0.68708076  0.04880594     1.13500
C751        C  0.75696643  0.76873536  0.46167889     1.04200
O752        O  0.81101665  0.79874742  0.00480778    -0.95400
O753        O  0.80298049  0.81538973  0.05961626    -0.91100
O754        O  0.80143503  0.80668940  0.11032038    -0.84300
C755        C  0.81023756  0.81724992  0.08697967     1.10900
O756        O  0.68235375  0.78491788  0.04085458    -0.97400
Zr757      Zr  0.71502119  0.78285794  0.07580152     1.88900
O758        O  0.74735970  0.80914453  0.14318160    -0.74000
O759        O  0.75964153  0.82900665  0.02104200    -0.53300
O760        O  0.70762151  0.82208009  0.05657228    -0.97900
O761        O  0.67816395  0.77089525  0.09887244    -0.55200
O762        O  0.71224298  0.80738575  0.12000852    -0.74500
C763        C  0.72582920  0.81517212  0.14045580     0.97800
O764        O  0.79672175  0.78005942  0.16343922    -0.63300
O765        O  0.75182147  0.68711530  0.13583604    -0.58100
O766        O  0.76365902  0.75792291  0.16748991    -0.94800
O767        O  0.74088308  0.72605616  0.16304364    -0.93200
O768        O  0.79951565  0.69079020  0.08744026    -0.93600
O769        O  0.83354527  0.74236777  0.09463489    -0.92400
C770        C  0.75191897  0.74100220  0.17896919     1.16700
H771        H  0.76360740  0.69781273  0.05793284     0.32600
H772        H  0.81082263  0.77539429  0.07733006     0.43500
H773        H  0.72425289  0.76435139  0.13495181     0.37000
H774        H  0.72904106  0.78308519  0.01293616     0.33500
H775        H  0.83556850  0.69842336  0.05026264     0.25300
H776        H  0.77335629  0.83932082  0.01995849     0.31200
H777        H  0.72203958  0.83077218  0.06069979     0.37100
H778        H  0.80707513  0.69210488  0.10751913     0.31600
H779        H  0.73756544  0.67812837  0.14051797     0.30400
H780        H  0.68953639  0.71117210  0.10322884     0.32100
H781        H  0.67151033  0.78519813  0.10785746     0.31100
H782        H  0.83068732  0.73688584  0.11580355     0.35100
H783        H  0.81100461  0.77155068  0.15723949     0.27800
H784        H  0.71438972  0.71837903  0.47555265     0.32100
H785        H  0.68061673  0.76882431  0.03358550     0.34900
H786        H  0.76039862  0.67764585  0.12071635     0.27500
H787        H  0.80135878  0.79648307  0.16540900     0.40400
H788        H  0.82312399  0.78886691  0.01454208     0.30400
H789        H  0.84182605  0.72207161  0.03413237     0.38100
H790        H  0.68258680  0.76110674  0.11663211     0.29900
H791        H  0.75456809  0.82769922  0.99965154     0.30000
H792        H  0.70305960  0.74246462  0.48360343     0.30200
Zr793      Zr  0.55191037  0.31613747  0.12165622     2.17500
O794        O  0.53812356  0.29124010  0.16330754    -0.52100
O795        O  0.58800299  0.29486603  0.10672342    -0.75300
O796        O  0.53981508  0.27878996  0.10254485    -0.82100
O797        O  0.59736276  0.35116758  0.15711040    -0.83800
O798        O  0.51905812  0.28728423  0.06017204    -0.79500
O799        O  0.57300646  0.32167213  0.16774823    -0.91100
O800        O  0.60042485  0.30969395  0.06112675    -0.77100
O801        O  0.54799603  0.31671643  0.06809663    -0.86600
O802        O  0.58118793  0.34143828  0.10203966    -0.86300
O803        O  0.51255659  0.33053115  0.11451530    -0.73000
O804        O  0.54286841  0.35343921  0.14422654    -0.85100
Zr805      Zr  0.53043871  0.39258827  0.05925607     2.26400
Zr806      Zr  0.50909146  0.32949457  0.06047989     2.06300
Zr807      Zr  0.57356159  0.37758771  0.12521049     2.10000
Zr808      Zr  0.57673311  0.34266092  0.04857226     1.78800
O809        O  0.57139738  0.39610253  0.17472865    -0.93900
O810        O  0.57501260  0.31781368  0.00417652    -0.41800
O811        O  0.56952619  0.37947937  0.07040507    -0.78400
O812        O  0.53824794  0.35477867  0.03873903    -0.97100
O813        O  0.50029007  0.36817527  0.07857685    -0.90400
O814        O  0.53565627  0.39290818  0.11338514    -0.93200
C815        C  0.60216664  0.29562073  0.08367827     1.00500
C816        C  0.59291318  0.33117306  0.16920341     1.13500
C817        C  0.52974323  0.27270839  0.07797453     1.04200
O818        O  0.48644254  0.30785956  0.02385487    -0.95400
O819        O  0.49857633  0.34702169  0.01252649    -0.91100
O820        O  0.51079468  0.38447270  0.01073876    -0.84300
C821        C  0.50129050  0.36653218  0.99876292     1.10900
O822        O  0.48425854  0.34867891  0.17233011    -0.97400
Zr823      Zr  0.50479246  0.37013785  0.13230442     1.88900
O824        O  0.50945974  0.42534130  0.08278128    -0.74000
O825        O  0.47034851  0.32584357  0.08310384    -0.53300
O826        O  0.46353085  0.36824987  0.12003851    -0.97900
O827        O  0.50644486  0.38634074  0.18327296    -0.55200
O828        O  0.49446951  0.41289995  0.12800473    -0.74500
C829        C  0.49885546  0.42932378  0.10820588     0.97800
O830        O  0.52509166  0.42016540  0.01709070    -0.63300
O831        O  0.61472976  0.38670849  0.11931090    -0.58100
O832        O  0.56711546  0.41273621  0.06102903    -0.94800
O833        O  0.57653317  0.41783595  0.10993421    -0.93200
O834        O  0.61556192  0.35945899  0.04600374    -0.93600
O835        O  0.58396698  0.36321332  0.00058494    -0.92400
C836        C  0.57319593  0.42569129  0.08300448     1.16700
H837        H  0.59693137  0.33674109  0.10664478     0.32600
H838        H  0.53915416  0.35445662  0.01685392     0.43500
H839        H  0.53560604  0.40816581  0.12207816     0.37000
H840        H  0.50177598  0.31983213  0.12406861     0.33500
H841        H  0.59036592  0.30986989  0.00315571     0.25300
H842        H  0.46043189  0.33638580  0.07067054     0.31200
H843        H  0.45764968  0.38438945  0.12185504     0.37100
H844        H  0.62592419  0.34791728  0.05602785     0.31600
H845        H  0.61740678  0.39959300  0.13352235     0.30400
H846        H  0.56763456  0.41259455  0.17017241     0.32100
H847        H  0.51307420  0.40204414  0.18038289     0.31100
H848        H  0.58386540  0.37986728  0.00595925     0.35100
H849        H  0.51567981  0.43330656  0.02493945     0.27800
H850        H  0.54634821  0.27619361  0.16075885     0.32100
H851        H  0.49621642  0.33816772  0.18122330     0.34900
H852        H  0.61624403  0.39375993  0.09870742     0.27500
H853        H  0.54068239  0.42654760  0.01234707     0.40400
H854        H  0.49801940  0.30115408  0.00951286     0.30400
H855        H  0.56390108  0.30543091  0.01000047     0.38100
H856        H  0.51892005  0.37738895  0.19367750     0.29900
H857        H  0.46517278  0.31004734  0.07786023     0.30000
H858        H  0.52163004  0.28801800  0.15857798     0.30200
Zr859      Zr  0.58123475  0.12878747  0.02310865     2.17500
O860        O  0.57903529  0.16767827  0.50439958    -0.52100
O861        O  0.61042961  0.14497836  0.05875905    -0.75300
O862        O  0.56382273  0.16689259  0.03676261    -0.82100
O863        O  0.62930551  0.08448884  0.00270782    -0.83800
O864        O  0.52662163  0.16064750  0.05214718    -0.79500
O865        O  0.58571264  0.12377472  0.48603727    -0.91100
O866        O  0.60352217  0.12799353  0.10463590    -0.77100
O867        O  0.55923017  0.12698166  0.06858744    -0.86600
O868        O  0.59878874  0.09826934  0.05231417    -0.86300
O869        O  0.54286751  0.11896155  0.00464224    -0.73000
O870        O  0.57732096  0.09340758  0.99360731    -0.85100
Zr871      Zr  0.53545655  0.05417730  0.05759762     2.26400
Zr872      Zr  0.52102116  0.11854816  0.05090237     2.06300
Zr873      Zr  0.59599198  0.06350914  0.02359111     2.10000
Zr874      Zr  0.57690796  0.09670258  0.09824414     1.78800
O875        O  0.58660344  0.06090074  0.46108634    -0.93900
O876        O  0.55843120  0.11725195  0.14033008    -0.41800
O877        O  0.57507945  0.06107166  0.07117054    -0.78400
O878        O  0.53785599  0.08982649  0.08462015    -0.97100
O879        O  0.51637842  0.08214869  0.02597927    -0.90400
O880        O  0.55721417  0.05380057  0.01118145    -0.93200
C881        C  0.61460127  0.14232957  0.08754840     1.00500
C882        C  0.60663658  0.11746135  0.48096830     1.13500
C883        C  0.54391267  0.17422323  0.04693592     1.04200
O884        O  0.49623071  0.14285682  0.08285172    -0.95400
O885        O  0.49184177  0.09876104  0.08017763    -0.91100
O886        O  0.50018573  0.06020615  0.08600564    -0.84300
C887        C  0.48801689  0.07846396  0.09109961     1.10900
O888        O  0.50396211  0.11478088  0.48320013    -0.97400
Zr889      Zr  0.52112903  0.08774097  0.51993569     1.88900
O890        O  0.50886960  0.03346209  0.02664883    -0.74000
O891        O  0.49173660  0.12574598  0.01207505    -0.53300
O892        O  0.48085981  0.09880870  0.53064035    -0.97900
O893        O  0.52419565  0.07494752  0.46735033    -0.55200
O894        O  0.50139834  0.04828952  0.52345207    -0.74500
C895        C  0.51181769  0.02697689  0.99924001     0.97800
O896        O  0.52967092  0.02925342  0.10233935    -0.63300
O897        O  0.62852080  0.04795042  0.05296507    -0.58100
O898        O  0.55386695  0.01736553  0.04986503    -0.94800
O899        O  0.58996710  0.02149996  0.02905623    -0.93200
O900        O  0.61326231  0.08230937  0.11994943    -0.93600
O901        O  0.56974005  0.07063143  0.14146628    -0.92400
C902        C  0.57295531  0.00906011  0.03918472     1.16700
H903        H  0.61499833  0.10117145  0.05643558     0.32600
H904        H  0.52963823  0.08914364  0.10385628     0.43500
H905        H  0.55786004  0.03919369  0.00080442     0.37000
H906        H  0.53720782  0.13125919  0.99140055     0.33500
H907        H  0.57107402  0.12624591  0.14965858     0.25300
H908        H  0.47812736  0.11656517  0.01904275     0.31200
H909        H  0.47141074  0.08659175  0.52116285     0.37100
H910        H  0.61345366  0.06546071  0.11571375     0.31600
H911        H  0.64026636  0.04335389  0.03747343     0.30400
H912        H  0.60235243  0.05480838  0.45608969     0.32100
H913        H  0.51487006  0.06058769  0.46661993     0.31100
H914        H  0.55309081  0.06642819  0.14010540     0.35100
H915        H  0.52510211  0.01391503  0.09448995     0.27800
H916        H  0.58449651  0.18023180  0.51770943     0.32100
H917        H  0.51735565  0.12360846  0.47482813     0.34900
H918        H  0.63535159  0.06161672  0.06287963     0.27500
H919        H  0.54544698  0.02675340  0.11079151     0.40400
H920        H  0.50225156  0.14049648  0.10374558     0.30400
H921        H  0.54829600  0.12910548  0.13048797     0.38100
H922        H  0.54052190  0.06953525  0.46502258     0.29900
H923        H  0.48687823  0.14210712  0.01500075     0.30000
H924        H  0.56321201  0.17250730  0.49792439     0.30200
Zr925      Zr  0.92511053  0.14415787  0.37494528     2.17500
O926        O  0.91708579  0.16791859  0.41947581    -0.52100
O927        O  0.90087294  0.16914763  0.33919130    -0.75300
O928        O  0.95076888  0.17778661  0.37653052    -0.82100
O929        O  0.86881887  0.11651491  0.36750138    -0.83800
O930        O  0.98452658  0.16717682  0.35315968    -0.79500
O931        O  0.88827793  0.13848689  0.39972044    -0.91100
O932        O  0.91648839  0.16456266  0.29240948    -0.77100
O933        O  0.95222323  0.14551262  0.33423914    -0.86600
O934        O  0.90587564  0.12489673  0.33472726    -0.86300
O935        O  0.95905778  0.12310434  0.39427107    -0.73000
O936        O  0.92222927  0.10538005  0.39132609    -0.85100
Zr937      Zr  0.95883929  0.06623748  0.32653303     2.26400
Zr938      Zr  0.98559046  0.12427594  0.35205036     2.06300
Zr939      Zr  0.89911467  0.08748066  0.35715504     2.10000
Zr940      Zr  0.93330357  0.12658593  0.29400359     1.78800
O941        O  0.88464080  0.06973465  0.40425092    -0.93900
O942        O  0.96112788  0.15114537  0.26637587    -0.41800
O943        O  0.92504076  0.08916562  0.31401429    -0.78400
O944        O  0.96641088  0.10571584  0.30995077    -0.97100
O945        O  0.97955712  0.08416550  0.36682611    -0.90400
O946        O  0.93260300  0.06419522  0.36937003    -0.93200
C947        C  0.90140100  0.17364349  0.31006516     1.00500
C948        C  0.86985626  0.13402227  0.38503045     1.13500
C949        C  0.97075919  0.18261759  0.36472333     1.04200
O950        O  0.02309184  0.14312822  0.34384530    -0.95400
O951        O  0.01164323  0.10784693  0.31437020    -0.91100
O952        O  0.99938454  0.07114881  0.30865442    -0.84300
C953        C  0.00987954  0.08942832  0.29866990     1.10900
O954        O  0.95642603  0.09890942  0.45923368    -0.97400
Zr955      Zr  0.95319823  0.08216009  0.40875151     1.88900
O956        O  0.96562522  0.03036381  0.35546920    -0.74000
O957        O  0.00614283  0.11744437  0.39969966    -0.53300
O958        O  0.99073363  0.07706502  0.43337719    -0.97900
O959        O  0.92569056  0.06290034  0.44316504    -0.55200
O960        O  0.96332172  0.03918963  0.40553799    -0.74500
C961        C  0.96647341  0.02438019  0.38368060     0.97800
O962        O  0.96654965  0.03376516  0.29233383    -0.63300
O963        O  0.86199166  0.07573281  0.33614152    -0.58100
O964        O  0.92620711  0.05612343  0.29440622    -0.94800
O965        O  0.89818498  0.05178277  0.32937668    -0.93200
O966        O  0.89932656  0.12383004  0.26143876    -0.93600
O967        O  0.94235814  0.10905107  0.24500107    -0.92400
C968        C  0.90501554  0.05154857  0.30181294     1.16700
H969        H  0.89130618  0.13118256  0.32740244     0.32600
H970        H  0.97393579  0.10673792  0.29044898     0.43500
H971        H  0.92756796  0.04868735  0.37459227     0.37000
H972        H  0.96523532  0.13155730  0.41120928     0.33500
H973        H  0.95908479  0.16690197  0.27481373     0.25300
H974        H  0.01963831  0.10744660  0.39428993     0.31200
H975        H  0.99999732  0.06719684  0.41940647     0.37100
H976        H  0.90298716  0.13362343  0.24334690     0.31600
H977        H  0.85033595  0.07755632  0.35271638     0.30400
H978        H  0.86942810  0.07744216  0.40810944     0.32100
H979        H  0.91680968  0.07553325  0.45315970     0.31100
H980        H  0.94766970  0.09305911  0.25001560     0.35100
H981        H  0.96231614  0.03893926  0.27151201     0.27800
H982        H  0.91445280  0.18386564  0.41140178     0.32100
H983        H  0.94643854  0.11301016  0.45858929     0.34900
H984        H  0.85804318  0.08790354  0.32086868     0.27500
H985        H  0.98366610  0.03153480  0.29173114     0.40400
H986        H  0.03476247  0.13345421  0.35474753     0.30400
H987        H  0.97670011  0.14611365  0.27356005     0.38100
H988        H  0.93548764  0.05603653  0.45948244     0.29900
H989        H  0.01296310  0.13261445  0.40485964     0.30000
H990        H  0.93199564  0.16859099  0.43058605     0.30200
Zr991      Zr  0.93220510  0.32017324  0.32615256     2.17500
O992        O  0.93297491  0.29319804  0.28390132    -0.52100
O993        O  0.90732665  0.30050085  0.36515522    -0.75300
O994        O  0.95418030  0.28561765  0.33815544    -0.82100
O995        O  0.87687632  0.35130035  0.30791251    -0.83800
O996        O  0.99100341  0.29726191  0.34833767    -0.79500
O997        O  0.89446565  0.31594267  0.30591760    -0.91100
O998        O  0.90930480  0.32070594  0.40887944    -0.77100
O999        O  0.95605148  0.32576556  0.36903091    -0.86600
O1000       O  0.91075895  0.34692085  0.35617302    -0.86300
O1001       O  0.96758971  0.33568442  0.30400584    -0.73000
O1002       O  0.92719381  0.35400180  0.29338793    -0.85100
Zr1003     Zr  0.96462234  0.40289637  0.34840324     2.26400
Zr1004     Zr  0.99142413  0.34052533  0.34768068     2.06300
Zr1005     Zr  0.90537135  0.38010858  0.32450540     2.10000
Zr1006     Zr  0.93494637  0.35297658  0.39905304     1.78800
O1007       O  0.89273262  0.40274989  0.28036730    -0.93900
O1008       O  0.95415518  0.32912149  0.43783884    -0.41800
O1009       O  0.92932999  0.38659312  0.36777496    -0.78400
O1010       O  0.97073799  0.36835119  0.37971399    -0.97100
O1011       O  0.98637027  0.37611546  0.31843486    -0.90400
O1012       O  0.94027413  0.39758148  0.30558436    -0.93200
C1013       C  0.90112825  0.30415893  0.39310874     1.00500
C1014       C  0.87688819  0.32933165  0.30269491     1.13500
C1015       C  0.97535768  0.28144208  0.34527678     1.04200
O1016       O  0.01809231  0.32211469  0.38364685    -0.95400
O1017       O  0.01800822  0.36629920  0.37280563    -0.91100
O1018       O  0.00595758  0.39590476  0.34493762    -0.84300
C1019       C  0.01675760  0.38814504  0.36808081     1.10900
O1020       O  0.96711979  0.34539669  0.23289322    -0.97400
Zr1021     Zr  0.96292027  0.37212907  0.27518133     1.88900
O1022       O  0.97558260  0.43244225  0.31104352    -0.74000
O1023       O  0.02127130  0.33682863  0.30826577    -0.53300
O1024       O  0.00326788  0.37054157  0.25757458    -0.97900
O1025       O  0.93970780  0.38328871  0.23112410    -0.55200
O1026       O  0.97487197  0.41386395  0.26568753    -0.74500
C1027       C  0.97814428  0.43228269  0.28197430     0.97800
O1028       O  0.97511113  0.42601709  0.39220464    -0.63300
O1029       O  0.86659932  0.38831968  0.34515725    -0.58100
O1030       O  0.93602817  0.43299636  0.35652407    -0.94800
O1031       O  0.90086545  0.41537933  0.35318114    -0.93200
O1032       O  0.90167336  0.37145625  0.42396198    -0.93600
O1033       O  0.94420902  0.37441497  0.44482761    -0.92400
C1034       C  0.91399396  0.43209690  0.36114380     1.16700
H1035       H  0.89536324  0.34181639  0.36197558     0.32600
H1036       H  0.97973543  0.37220041  0.39736260     0.43500
H1037       H  0.93652308  0.41204256  0.29530907     0.37000
H1038       H  0.97470081  0.32414530  0.29104618     0.33500
H1039       H  0.95204644  0.31287847  0.43133380     0.25300
H1040       H  0.03281610  0.34888709  0.31313067     0.31200
H1041       H  0.00289812  0.37682439  0.23648292     0.37100
H1042       H  0.89729863  0.38459490  0.41037346     0.31600
H1043       H  0.85581853  0.38756967  0.32772685     0.30400
H1044       H  0.88553496  0.41688977  0.28912589     0.32100
H1045       H  0.95125157  0.38845809  0.21561721     0.31100
H1046       H  0.95424595  0.38733375  0.43776055     0.35100
H1047       H  0.97558274  0.44225132  0.38450274     0.27800
H1048       H  0.94952717  0.28868368  0.28105762     0.32100
H1049       H  0.95621673  0.33262508  0.23781530     0.34900
H1050       H  0.86273984  0.37464933  0.35811299     0.27500
H1051       H  0.96135321  0.42548813  0.40596017     0.40400
H1052       H  0.00787559  0.31534772  0.39969833     0.30400
H1053       H  0.97099564  0.33204545  0.43476004     0.38100
H1054       H  0.93160263  0.39775281  0.23728275     0.29900
H1055       H  0.02927595  0.32194336  0.31305087     0.30000
H1056       H  0.92963283  0.30315338  0.26588275     0.30200
Zr1057     Zr  0.71604358  0.22228352  0.51652985     2.17500
O1058       O  0.72063599  0.18560151  0.05594161    -0.52100
O1059       O  0.69330256  0.23617721  0.03961497    -0.75300
O1060       O  0.74500591  0.22383309  0.06614480    -0.82100
O1061       O  0.67459186  0.20266332  0.45346511    -0.83800
O1062       O  0.78020596  0.24154896  0.06279256    -0.79500
O1063       O  0.68522232  0.19552335  0.50259647    -0.91100
O1064       O  0.68715121  0.28059169  0.51484052    -0.77100
O1065       O  0.73819472  0.25702884  0.51666644    -0.86600
O1066       O  0.69890585  0.24601724  0.47764207    -0.86300
O1067       O  0.75581398  0.21086249  0.50761830    -0.73000
O1068       O  0.71926610  0.20193154  0.46974882    -0.85100
Zr1069     Zr  0.76501806  0.24861454  0.42133830     2.26400
Zr1070     Zr  0.77801657  0.24629161  0.50552882     2.06300
Zr1071     Zr  0.70397274  0.22685336  0.43026935     2.10000
Zr1072     Zr  0.72054036  0.28086494  0.47877410     1.78800
O1073       O  0.69026136  0.19585831  0.39790341    -0.93900
O1074       O  0.73047471  0.30955354  0.51668549    -0.41800
O1075       O  0.72586655  0.26194753  0.43042428    -0.78400
O1076       O  0.76067408  0.27084379  0.46719366    -0.97100
O1077       O  0.78118150  0.22426791  0.46002808    -0.90400
O1078       O  0.74286582  0.21418211  0.42097255    -0.93200
C1079       C  0.67771213  0.26606781  0.53386035     1.00500
C1080       C  0.67269050  0.19177614  0.47899603     1.13500
C1081       C  0.76300547  0.23270041  0.07815464     1.04200
O1082       O  0.79023184  0.28308710  0.52658993    -0.95400
O1083       O  0.81331677  0.25793779  0.47539472    -0.91100
O1084       O  0.80115407  0.26794095  0.42791960    -0.84300
C1085       C  0.81701632  0.26584860  0.44799502     1.10900
O1086       O  0.75244027  0.15649672  0.49413096    -0.97400
Zr1087     Zr  0.75813292  0.19010738  0.46070729     1.88900
O1088       O  0.79451834  0.22028452  0.40471565    -0.74000
O1089       O  0.81090532  0.22446358  0.52649681    -0.53300
O1090       O  0.79522834  0.17268002  0.47545744    -0.97900
O1091       O  0.73842059  0.15830454  0.43581875    -0.55200
O1092       O  0.77885402  0.18501183  0.41396669    -0.74500
C1093       C  0.79484559  0.19800067  0.40338773     0.97800
O1094       O  0.77593781  0.27937866  0.38527364    -0.63300
O1095       O  0.67149843  0.25347024  0.42088444    -0.58100
O1096       O  0.74708109  0.24425057  0.37210163    -0.94800
O1097       O  0.70904862  0.23404261  0.37549566    -0.93200
O1098       O  0.68957963  0.29955230  0.44955616    -0.93600
O1099       O  0.73200563  0.31806614  0.45649021    -0.92400
C1100       C  0.72742216  0.23933672  0.36012942     1.16700
H1101       H  0.68235404  0.24814557  0.48050544     0.32600
H1102       H  0.76949515  0.28501364  0.46532360     0.43500
H1103       H  0.74362024  0.20642873  0.40162980     0.37000
H1104       H  0.77470323  0.20053476  0.02501104     0.33500
H1105       H  0.72480499  0.30296329  0.53630379     0.25300
H1106       H  0.83077246  0.23943205  0.03567400     0.31200
H1107       H  0.79745593  0.17752468  0.49677660     0.37100
H1108       H  0.68120097  0.30945943  0.46439225     0.31600
H1109       H  0.66777335  0.25158353  0.39909965     0.30400
H1110       H  0.67520557  0.20158608  0.38976236     0.32100
H1111       H  0.75106274  0.14734738  0.43008186     0.31100
H1112       H  0.74006633  0.31400279  0.43722280     0.35100
H1113       H  0.78297507  0.27140591  0.36752728     0.27800
H1114       H  0.71682221  0.19337185  0.07530994     0.32100
H1115       H  0.74349889  0.16253100  0.51175278     0.34900
H1116       H  0.65812878  0.24647079  0.43193541     0.27500
H1117       H  0.76111273  0.28613552  0.37772661     0.40400
H1118       H  0.81387868  0.28205806  0.03555449     0.30400
H1119       H  0.74766905  0.30865148  0.51808794     0.38100
H1120       H  0.73299957  0.16495817  0.41618783     0.29900
H1121       H  0.81565365  0.21772056  0.04430176     0.30000
H1122       H  0.73623162  0.17855301  0.05924732     0.30200
Zr1123     Zr  0.71762093  0.24043870  0.16868175     2.17500
O1124       O  0.70262680  0.26479778  0.12739534    -0.52100
O1125       O  0.69291460  0.21029448  0.14790551    -0.75300
O1126       O  0.74059972  0.23716526  0.12205942    -0.82100
O1127       O  0.67538984  0.26801404  0.22707321    -0.83800
O1128       O  0.77906830  0.22910541  0.12895291    -0.79500
O1129       O  0.68292223  0.26465828  0.17624017    -0.91100
O1130       O  0.69770035  0.17817382  0.17765527    -0.77100
O1131       O  0.74388347  0.20844243  0.17467224    -0.86600
O1132       O  0.70174969  0.21916697  0.21086922    -0.86300
O1133       O  0.75557010  0.25670335  0.17681360    -0.73000
O1134       O  0.71741157  0.26559525  0.21150168    -0.85100
Zr1135     Zr  0.76543127  0.22794699  0.26751671     2.26400
Zr1136     Zr  0.78207684  0.22425726  0.18479701     2.06300
Zr1137     Zr  0.70304337  0.24390555  0.25460009     2.10000
Zr1138     Zr  0.72736729  0.18683565  0.21604087     1.78800
O1139       O  0.68471805  0.27443625  0.28448347    -0.93900
O1140       O  0.74282400  0.15367313  0.18818337    -0.41800
O1141       O  0.72808613  0.21085560  0.26050484    -0.78400
O1142       O  0.76585502  0.20155039  0.22581512    -0.97100
O1143       O  0.78087045  0.25020704  0.22640402    -0.90400
O1144       O  0.74024004  0.26052435  0.26259301    -0.93200
C1145       C  0.68792327  0.18929588  0.15544237     1.00500
C1146       C  0.67105376  0.27244707  0.19899850     1.13500
C1147       C  0.76135671  0.23342741  0.11189609     1.04200
O1148       O  0.79791326  0.18789760  0.16544213    -0.95400
O1149       O  0.81674603  0.21598448  0.21858940    -0.91100
O1150       O  0.80409532  0.21380574  0.26759356    -0.84300
C1151       C  0.82018620  0.21250328  0.24760812     1.10900
O1152       O  0.74028573  0.31232958  0.18552972    -0.97400
Zr1153     Zr  0.75442878  0.28188220  0.21977924     1.88900
O1154       O  0.79147945  0.25842838  0.28312048    -0.74000
O1155       O  0.81424308  0.24801492  0.16600893    -0.53300
O1156       O  0.78565132  0.30201813  0.19266119    -0.97900
O1157       O  0.73364971  0.31299497  0.24593078    -0.55200
O1158       O  0.78062453  0.29218229  0.25960309    -0.74500
C1159       C  0.79346765  0.28026143  0.27764271     0.97800
O1160       O  0.77485360  0.19781455  0.30532032    -0.63300
O1161       O  0.66872425  0.21994880  0.26296248    -0.58100
O1162       O  0.74846356  0.23663901  0.31559375    -0.94800
O1163       O  0.70922821  0.23914951  0.31031739    -0.93200
O1164       O  0.69579351  0.17138645  0.24746064    -0.93600
O1165       O  0.74087230  0.15492250  0.24849773    -0.92400
C1166       C  0.72789082  0.23840599  0.32656369     1.16700
H1167       H  0.68584541  0.21464668  0.20732930     0.32600
H1168       H  0.77610192  0.18860319  0.23043229     0.43500
H1169       H  0.74017124  0.27017710  0.28040684     0.37000
H1170       H  0.76038733  0.26578600  0.15924889     0.33500
H1171       H  0.72908559  0.14408491  0.18357099     0.25300
H1172       H  0.82047850  0.23987129  0.14792665     0.31200
H1173       H  0.80015814  0.29661337  0.20264085     0.37100
H1174       H  0.69311729  0.15561577  0.23957362     0.31600
H1175       H  0.66615642  0.21999122  0.28527775     0.30400
H1176       H  0.67048751  0.26725919  0.29320872     0.32100
H1177       H  0.73787524  0.31129943  0.26765873     0.31100
H1178       H  0.74356951  0.16212235  0.26850229     0.35100
H1179       H  0.76016236  0.19454917  0.31649638     0.27800
H1180       H  0.69957244  0.25398502  0.11056874     0.32100
H1181       H  0.72902428  0.30443730  0.17229349     0.34900
H1182       H  0.65565718  0.22935112  0.25464608     0.27500
H1183       H  0.77771215  0.18355246  0.29343720     0.40400
H1184       H  0.79841968  0.17730348  0.18337567     0.30400
H1185       H  0.74783627  0.16015746  0.16820571     0.38100
H1186       H  0.71705179  0.30846570  0.24524434     0.29900
H1187       H  0.80675677  0.26228518  0.15772878     0.30000
H1188       H  0.71589000  0.27438080  0.12024322     0.30200
Zr1189     Zr  0.39541260  0.04085758  0.18105289     2.17500
O1190       O  0.42338918  0.04458165  0.13926378    -0.52100
O1191       O  0.42266783  0.01545962  0.20674770    -0.75300
O1192       O  0.42307122  0.06739138  0.20289668    -0.82100
O1193       O  0.35238428  0.99710158  0.15146634    -0.83800
O1194       O  0.41342903  0.10393092  0.19401107    -0.79500
O1195       O  0.38952505  0.01005895  0.14472801    -0.91100
O1196       O  0.41614915  0.02299420  0.25650712    -0.77100
O1197       O  0.39530444  0.06035654  0.22845142    -0.86600
O1198       O  0.37233015  0.01644828  0.21326381    -0.86300
O1199       O  0.37969932  0.07915514  0.17120114    -0.73000
O1200       O  0.35750919  0.03918349  0.15896184    -0.85100
Zr1201     Zr  0.31717409  0.07409555  0.22859644     2.26400
Zr1202     Zr  0.37747211  0.09790806  0.22078742     2.06300
Zr1203     Zr  0.33347597  0.01712062  0.19313587     2.10000
Zr1204     Zr  0.37362100  0.03563309  0.26068790     1.78800
O1205       O  0.31209218  0.98715895  0.16666851    -0.93900
O1206       O  0.39138713  0.05406968  0.30423058    -0.41800
O1207       O  0.33398882  0.03633716  0.24073375    -0.78400
O1208       O  0.35464195  0.07359395  0.25400263    -0.97100
O1209       O  0.34127825  0.09618455  0.19536710    -0.90400
O1210       O  0.31776587  0.05473067  0.18103438    -0.93200
C1211       C  0.42957715  0.01572756  0.23443012     1.00500
C1212       C  0.37231189  0.99700782  0.13799299     1.13500
C1213       C  0.42730930  0.08694496  0.19043281     1.04200
O1214       O  0.39212311  0.10262180  0.27216811    -0.95400
O1215       O  0.34744316  0.12828596  0.22318422    -0.91100
O1216       O  0.32037288  0.11133372  0.25259016    -0.84300
C1217       C  0.32840394  0.12919608  0.23866553     1.10900
O1218       O  0.35945327  0.06615811  0.09920707    -0.97400
Zr1219     Zr  0.34237594  0.07668248  0.14814665     1.88900
O1220       O  0.29562245  0.10392890  0.19811872    -0.74000
O1221       O  0.39240817  0.13741385  0.22354312    -0.53300
O1222       O  0.35776126  0.10946751  0.11893774    -0.97900
O1223       O  0.31155148  0.06439242  0.11401761    -0.55200
O1224       O  0.31428125  0.10737313  0.15236767    -0.74500
C1225       C  0.29917779  0.11399404  0.17198491     0.97800
O1226       O  0.29444327  0.07505237  0.27574136    -0.63300
O1227       O  0.33536140  0.98622684  0.23148521    -0.58100
O1228       O  0.28118696  0.05250709  0.22328414    -0.94800
O1229       O  0.29082499  0.01922139  0.19872534    -0.93200
O1230       O  0.37173217  0.99479678  0.27583003    -0.93600
O1231       O  0.35237730  0.02785683  0.30796641    -0.92400
C1232       C  0.27581686  0.03342599  0.21030696     1.16700
H1233       H  0.37867638  0.00086667  0.21439410     0.32600
H1234       H  0.35282626  0.08071652  0.27368364     0.43500
H1235       H  0.30260816  0.05441383  0.17178677     0.37000
H1236       H  0.38922884  0.08732329  0.15650673     0.33500
H1237       H  0.39572813  0.04105486  0.31807710     0.25300
H1238       H  0.40855323  0.13617326  0.23122031     0.31200
H1239       H  0.35963384  0.12189779  0.13406953     0.37100
H1240       H  0.38815099  0.98947521  0.27702245     0.31600
H1241       H  0.31899226  0.98136713  0.23458847     0.30400
H1242       H  0.31504567  0.97254275  0.17817119     0.32100
H1243       H  0.29685438  0.07087090  0.12246025     0.31100
H1244       H  0.33607023  0.03244972  0.30355045     0.35100
H1245       H  0.29084522  0.05860986  0.28050370     0.27800
H1246       H  0.42931378  0.02871174  0.13523485     0.32100
H1247       H  0.35375977  0.05028657  0.09538539     0.34900
H1248       H  0.34296980  0.97300438  0.22103995     0.27500
H1249       H  0.30576745  0.07934499  0.29155829     0.40400
H1250       H  0.40906722  0.09949115  0.27028400     0.30400
H1251       H  0.40650304  0.05986077  0.29635426     0.38100
H1252       H  0.31033090  0.04739184  0.11728655     0.29900
H1253       H  0.39397333  0.14300492  0.20219275     0.30000
H1254       H  0.41391979  0.04886784  0.12128790     0.30200
Zr1255     Zr  0.05509915  0.04327753  0.19245135     2.17500
O1256       O  0.01953393  0.03505388  0.22143023    -0.52100
O1257       O  0.03354358  0.01554443  0.16297797    -0.75300
O1258       O  0.02993481  0.07153739  0.16594218    -0.82100
O1259       O  0.09598497  0.00704761  0.24433072    -0.83800
O1260       O  0.03914789  0.10828006  0.16086200    -0.79500
O1261       O  0.06073921  0.02507898  0.24279070    -0.91100
O1262       O  0.04541223  0.02547092  0.11564050    -0.77100
O1263       O  0.06216283  0.05958812  0.14303595    -0.86600
O1264       O  0.08251932  0.01657679  0.17084697    -0.86300
O1265       O  0.06998577  0.08206385  0.19855336    -0.73000
O1266       O  0.08993455  0.04464017  0.22107771    -0.85100
Zr1267     Zr  0.13941819  0.07355505  0.16048450     2.26400
Zr1268     Zr  0.07888627  0.09759699  0.14804179     2.06300
Zr1269     Zr  0.11813741  0.01920950  0.19957111     2.10000
Zr1270     Zr  0.08839341  0.03281453  0.12124726     1.78800
O1271       O  0.13558085  0.98911357  0.23184849    -0.93900
O1272       O  0.08049717  0.04666837  0.06958354    -0.41800
O1273       O  0.12452606  0.03519097  0.15008777    -0.78400
O1274       O  0.10634391  0.07065972  0.12665115    -0.97100
O1275       O  0.11125785  0.09893908  0.18197453    -0.90400
O1276       O  0.13188495  0.05760989  0.20952106    -0.93200
C1277       C  0.02965428  0.01772401  0.13444662     1.00500
C1278       C  0.07609644  0.01215117  0.25615877     1.13500
C1279       C  0.02634241  0.09269700  0.17301285     1.04200
O1280       O  0.06015871  0.10317537  0.09891890    -0.95400
O1281       O  0.10630111  0.12023828  0.11709164    -0.91100
O1282       O  0.14233597  0.10422226  0.12300851    -0.84300
C1283       C  0.12829846  0.11914360  0.11133106     1.10900
O1284       O  0.07197150  0.08257983  0.26952184    -0.97400
Zr1285     Zr  0.10276485  0.08236132  0.23083613     1.88900
O1286       O  0.15651643  0.10440997  0.19311258    -0.74000
O1287       O  0.07789061  0.13838014  0.16217887    -0.53300
O1288       O  0.09134700  0.12184220  0.24388872    -0.97900
O1289       O  0.11723341  0.06622944  0.27883785    -0.55200
O1290       O  0.13670869  0.10488510  0.23788083    -0.74500
C1291       C  0.15296702  0.11218395  0.22039068     0.97800
O1292       O  0.17320106  0.06783272  0.12727046    -0.63300
O1293       O  0.11993641  0.98529408  0.16697122    -0.58100
O1294       O  0.17345922  0.05139183  0.17526755    -0.94800
O1295       O  0.16088273  0.02040217  0.20320710    -0.93200
O1296       O  0.08905848  0.99070881  0.11596202    -0.93600
O1297       O  0.11432280  0.01937308  0.08086298    -0.92400
C1298       C  0.17707057  0.03326956  0.19179010     1.16700
H1299       H  0.07640587  0.00100101  0.17083779     0.32600
H1300       H  0.11097131  0.07576909  0.10650074     0.43500
H1301       H  0.14541098  0.05783679  0.22240239     0.37000
H1302       H  0.05930929  0.09164260  0.20960317     0.33500
H1303       H  0.06372711  0.05083771  0.06966327     0.25300
H1304       H  0.06564899  0.14558819  0.14931888     0.31200
H1305       H  0.09813116  0.13179622  0.22759910     0.37100
H1306       H  0.07247915  0.98614457  0.11529256     0.31600
H1307       H  0.13613491  0.97941204  0.16886076     0.30400
H1308       H  0.12678237  0.97474927  0.22797439     0.32100
H1309       H  0.13221375  0.05851374  0.27375402     0.31100
H1310       H  0.12796615  0.01268125  0.09161675     0.35100
H1311       H  0.16665949  0.06512195  0.10686340     0.27800
H1312       H  0.02214537  0.03954669  0.24277684     0.32100
H1313       H  0.07830749  0.09124246  0.28688516     0.34900
H1314       H  0.11026723  0.97340143  0.17740616     0.27500
H1315       H  0.18112201  0.08302149  0.12568278     0.40400
H1316       H  0.04542796  0.09440248  0.10060287     0.30400
H1317       H  0.08855161  0.06173056  0.06739572     0.38100
H1318       H  0.10660689  0.05324980  0.28392316     0.29900
H1319       H  0.07132085  0.13851427  0.18308859     0.30000
H1320       H  0.01826847  0.01791085  0.22216059     0.30200
Zr1321     Zr  0.42054087  0.43572798  0.45963562     2.17500
O1322       O  0.44985283  0.41775525  0.49207405    -0.52100
O1323       O  0.45018895  0.46542468  0.45286603    -0.75300
O1324       O  0.44659983  0.41716047  0.42316722    -0.82100
O1325       O  0.38048174  0.45256028  0.52571920    -0.83800
O1326       O  0.42858636  0.38882227  0.39917357    -0.79500
O1327       O  0.41559132  0.43570620  0.51529010    -0.91100
O1328       O  0.44140347  0.48214820  0.40764596    -0.77100
O1329       O  0.41700515  0.44325889  0.40645648    -0.86600
O1330       O  0.40065118  0.47222375  0.45756956    -0.86300
O1331       O  0.39997751  0.40310113  0.43906584    -0.73000
O1332       O  0.38324094  0.43034387  0.48237004    -0.85100
Zr1333     Zr  0.33715561  0.44219622  0.40798856     2.26400
Zr1334     Zr  0.39464317  0.41246702  0.38531538     2.06300
Zr1335     Zr  0.36233229  0.46618760  0.47916771     2.10000
Zr1336     Zr  0.39785241  0.47972243  0.40420143     1.78800
O1337       O  0.35011715  0.48481778  0.52630548    -0.93900
O1338       O  0.41154227  0.48691491  0.35224269    -0.41800
O1339       O  0.35899411  0.47477127  0.42626313    -0.78400
O1340       O  0.37435009  0.44912657  0.38234254    -0.97100
O1341       O  0.35851547  0.40625666  0.41072364    -0.90400
O1342       O  0.34155984  0.43353477  0.46098799    -0.93200
C1343       C  0.45624752  0.47684532  0.42874750     1.00500
C1344       C  0.39954096  0.44259201  0.53404988     1.13500
C1345       C  0.44554691  0.39603523  0.41507320     1.04200
O1346       O  0.41197903  0.43271734  0.34181181    -0.95400
O1347       O  0.36086963  0.39596449  0.35860394    -0.91100
O1348       O  0.33052342  0.42121175  0.36199753    -0.84300
C1349       C  0.34004461  0.40272146  0.35161677     1.10900
O1350       O  0.39883877  0.37378275  0.99899063    -0.97400
Zr1351     Zr  0.36328603  0.39812768  0.46344379     1.88900
O1352       O  0.30806747  0.41391503  0.42710355    -0.74000
O1353       O  0.40376954  0.38215681  0.34881130    -0.53300
O1354       O  0.35435111  0.35725621  0.47186846    -0.97900
O1355       O  0.36077119  0.39406900  0.02166771    -0.55200
O1356       O  0.33495359  0.38676728  0.42719511    -0.74500
C1357       C  0.31421430  0.39295351  0.43310147     0.97800
O1358       O  0.31657320  0.46572307  0.37011899    -0.63300
O1359       O  0.36999001  0.50752122  0.47261337    -0.58100
O1360       O  0.30550914  0.46257392  0.43403117    -0.94800
O1361       O  0.31952926  0.47057208  0.48091494    -0.93200
O1362       O  0.40366054  0.51771492  0.42674567    -0.93600
O1363       O  0.37609951  0.50988389  0.37700415    -0.92400
C1364       C  0.30269883  0.46878815  0.46185371     1.16700
H1365       H  0.40918687  0.48399663  0.46815577     0.32600
H1366       H  0.37141713  0.45297218  0.36123137     0.43500
H1367       H  0.32700249  0.43098305  0.47158654     0.37000
H1368       H  0.40799396  0.38878825  0.44370304     0.33500
H1369       H  0.41786714  0.50286494  0.35247293     0.25300
H1370       H  0.42040593  0.38395449  0.34317748     0.31200
H1371       H  0.36327333  0.34861550  0.96785019     0.37100
H1372       H  0.42071843  0.52014895  0.42643019     0.31600
H1373       H  0.35439920  0.51502205  0.47276389     0.30400
H1374       H  0.33932642  0.47373345  0.53638023     0.32100
H1375       H  0.34366479  0.39646124  0.02213653     0.31100
H1376       H  0.36153706  0.50222241  0.37080015     0.35100
H1377       H  0.31380960  0.48089084  0.37993094     0.27800
H1378       H  0.46477329  0.41992267  0.48098491     0.32100
H1379       H  0.41319172  0.38315164  0.00017198     0.34900
H1380       H  0.37729226  0.51237111  0.49183193     0.27500
H1381       H  0.32846480  0.46907709  0.35420632     0.40400
H1382       H  0.42895248  0.42999081  0.34397972     0.30400
H1383       H  0.42551533  0.47686935  0.34996442     0.38100
H1384       H  0.36702432  0.40823432  0.03101563     0.29900
H1385       H  0.40297998  0.36735731  0.36052879     0.30000
H1386       H  0.46037146  0.40645087  0.99320894     0.30200
Zr1387     Zr  0.08397806  0.49342349  0.47048178     2.17500
O1388       O  0.05832581  0.51870295  0.43998906    -0.52100
O1389       O  0.05464368  0.50536061  0.50812262    -0.75300
O1390       O  0.05256994  0.47231523  0.44769301    -0.82100
O1391       O  0.13937317  0.52797178  0.44742905    -0.83800
O1392       O  0.05294520  0.44288911  0.48090030    -0.79500
O1393       O  0.10172224  0.53089964  0.45863203    -0.91100
O1394       O  0.06963393  0.48894325  0.04496774    -0.77100
O1395       O  0.08040054  0.46331496  0.50772750    -0.86600
O1396       O  0.11022088  0.50361800  0.51016405    -0.86300
O1397       O  0.09510860  0.45760705  0.44455857    -0.73000
O1398       O  0.12300338  0.49090497  0.45040895    -0.85100
Zr1399     Zr  0.15664049  0.43713793  0.50123406     2.26400
Zr1400     Zr  0.09242105  0.42770930  0.48385651     2.06300
Zr1401     Zr  0.14965656  0.50203735  0.48927332     2.10000
Zr1402     Zr  0.11220230  0.47828615  0.04220073     1.78800
O1403       O  0.17317886  0.53674434  0.48154398    -0.93900
O1404       O  0.09496547  0.44952355  0.07661126    -0.41800
O1405       O  0.14539555  0.47239159  0.52754479    -0.78400
O1406       O  0.12559691  0.44225802  0.02020873    -0.97100
O1407       O  0.13051450  0.42820750  0.46187184    -0.90400
O1408       O  0.15994595  0.46675001  0.46340020    -0.93200
C1409       C  0.04979507  0.49935422  0.53568999     1.00500
C1410       C  0.11863326  0.53356129  0.43986147     1.13500
C1411       C  0.04502802  0.45259258  0.45680016     1.04200
O1412       O  0.08147976  0.40740974  0.01808170    -0.95400
O1413       O  0.12323111  0.39592613  0.97940220    -0.91100
O1414       O  0.15150544  0.40452936  0.01217197    -0.84300
C1415       C  0.14184140  0.39052613  0.99404217     1.10900
O1416       O  0.13368149  0.48045413  0.37730135    -0.97400
Zr1417     Zr  0.13395739  0.45698164  0.42384645     1.88900
O1418       O  0.17313040  0.41174316  0.46015075    -0.74000
O1419       O  0.08074453  0.40405701  0.44114262    -0.53300
O1420       O  0.10918784  0.43795246  0.38693761    -0.97900
O1421       O  0.16944652  0.46822481  0.39632642    -0.55200
O1422       O  0.15392611  0.42046485  0.41660355    -0.74500
C1423       C  0.16765614  0.40749731  0.43219458     0.97800
O1424       O  0.18855100  0.43226587  0.03922142    -0.63300
O1425       O  0.14940324  0.52443442  0.53597873    -0.58100
O1426       O  0.19596660  0.45357786  0.50131712    -0.94800
O1427       O  0.19152406  0.49198637  0.48992116    -0.93200
O1428       O  0.11280354  0.51384862  0.07170949    -0.93600
O1429       O  0.13318513  0.47437072  0.08998309    -0.92400
C1430       C  0.20426395  0.47370684  0.49429685     1.16700
H1431       H  0.10626074  0.51871848  0.51813836     0.32600
H1432       H  0.12478896  0.43059520  0.03618570     0.43500
H1433       H  0.17510013  0.46677839  0.45388503     0.37000
H1434       H  0.08512379  0.45425535  0.42767778     0.33500
H1435       H  0.08765807  0.45872018  0.09308653     0.25300
H1436       H  0.06877737  0.39341294  0.44945057     0.31200
H1437       H  0.12012875  0.43023593  0.37266082     0.37100
H1438       H  0.09712586  0.52089428  0.06920301     0.31600
H1439       H  0.16601567  0.52572035  0.54157994     0.30400
H1440       H  0.18289004  0.53371126  0.46325947     0.32100
H1441       H  0.18162272  0.45688705  0.40258481     0.31100
H1442       H  0.14509840  0.46219987  0.08607809     0.35100
H1443       H  0.17895324  0.43628856  0.05728585     0.27800
H1444       H  0.05973559  0.53448294  0.44841027     0.32100
H1445       H  0.13390122  0.46950441  0.36009939     0.34900
H1446       H  0.14470765  0.54036724  0.52967992     0.27500
H1447       H  0.18957399  0.41510540  0.03970044     0.40400
H1448       H  0.06907691  0.39925862  0.00703145     0.30400
H1449       H  0.08163425  0.44330553  0.06519760     0.38100
H1450       H  0.17427893  0.48316595  0.40511457     0.29900
H1451       H  0.07265399  0.41451140  0.42659899     0.30000
H1452       H  0.04220024  0.51424805  0.44557204     0.30200
Zr1453     Zr  0.21984433  0.24256055  0.24624828     2.17500
O1454       O  0.19017924  0.23381700  0.20865456    -0.52100
O1455       O  0.24524965  0.20962019  0.23305850    -0.75300
O1456       O  0.22886273  0.25587570  0.19602802    -0.82100
O1457       O  0.19813998  0.19897868  0.30041356    -0.83800
O1458       O  0.24682792  0.29073893  0.19699191    -0.79500
O1459       O  0.19184356  0.21268550  0.25282861    -0.91100
O1460       O  0.27802543  0.22841472  0.24045548    -0.77100
O1461       O  0.25769740  0.25916706  0.24781935    -0.86600
O1462       O  0.23821104  0.22410308  0.28892853    -0.86300
O1463       O  0.21263119  0.28371681  0.25063054    -0.73000
O1464       O  0.19456105  0.25228128  0.28824416    -0.85100
Zr1465     Zr  0.24587244  0.29051671  0.33949431     2.26400
Zr1466     Zr  0.25093932  0.29980015  0.25205637     2.06300
Zr1467     Zr  0.21268164  0.23275428  0.33022007     2.10000
Zr1468     Zr  0.27542176  0.24199075  0.29169470     1.78800
O1469       O  0.17281841  0.22849137  0.34870416    -0.93900
O1470       O  0.31660305  0.24034685  0.27769015    -0.41800
O1471       O  0.25097149  0.24939549  0.33469696    -0.78400
O1472       O  0.27012545  0.28272782  0.29577526    -0.97100
O1473       O  0.22822505  0.30933543  0.29665090    -0.90400
O1474       O  0.20795804  0.27405244  0.33732652    -0.93200
C1475       C  0.26753452  0.20987756  0.23384990     1.00500
C1476       C  0.19119892  0.19638099  0.27264484     1.13500
C1477       C  0.23812625  0.27333313  0.18277965     1.04200
O1478       O  0.28753743  0.30676157  0.22508552    -0.95400
O1479       O  0.27360772  0.32967697  0.27692921    -0.91100
O1480       O  0.26857197  0.32525090  0.32839778    -0.84300
C1481       C  0.27710185  0.33556309  0.30466989     1.10900
O1482       O  0.15799085  0.28844579  0.26081433    -0.97400
Zr1483     Zr  0.19028549  0.29368485  0.29572293     1.88900
O1484       O  0.22235962  0.32003475  0.36432036    -0.74000
O1485       O  0.23305722  0.33473921  0.23033655    -0.53300
O1486       O  0.18188717  0.33087605  0.27083390    -0.97900
O1487       O  0.15434354  0.28624522  0.32410209    -0.55200
O1488       O  0.18923833  0.32297055  0.33695042    -0.74500
C1489       C  0.20243826  0.32936516  0.35905425     0.97800
O1490       O  0.27993867  0.29367682  0.37208088    -0.63300
O1491       O  0.22628982  0.19790522  0.35686384    -0.58100
O1492       O  0.23898059  0.27108557  0.38858225    -0.94800
O1493       O  0.21799120  0.23780420  0.38496385    -0.93200
O1494       O  0.28077803  0.20286431  0.31232724    -0.93600
O1495       O  0.30600357  0.25248664  0.32692194    -0.92400
C1496       C  0.22889921  0.25308136  0.40032364     1.16700
H1497       H  0.23983607  0.20747826  0.28722118     0.32600
H1498       H  0.28537450  0.28938966  0.29817192     0.43500
H1499       H  0.19923049  0.27702724  0.35580051     0.37000
H1500       H  0.20453779  0.28934590  0.23276096     0.33500
H1501       H  0.31931574  0.22442463  0.27013480     0.25300
H1502       H  0.24302970  0.33871353  0.21252608     0.31200
H1503       H  0.17003775  0.33839236  0.28404879     0.37100
H1504       H  0.29116848  0.19502734  0.29749515     0.31600
H1505       H  0.21352280  0.18657410  0.35498181     0.30400
H1506       H  0.17430029  0.21971365  0.36814288     0.32100
H1507       H  0.15723007  0.29168722  0.34501345     0.31100
H1508       H  0.30070418  0.24616568  0.34686515     0.35100
H1509       H  0.28169005  0.27835978  0.38234882     0.27800
H1510       H  0.19826014  0.22471785  0.19269367     0.32100
H1511       H  0.14672011  0.30106604  0.26536592     0.34900
H1512       H  0.23899154  0.19172092  0.34381204     0.27500
H1513       H  0.29342002  0.29435430  0.35787084     0.40400
H1514       H  0.29333959  0.29108872  0.21968020     0.30400
H1515       H  0.31802010  0.25050148  0.25939861     0.38100
H1516       H  0.15374387  0.26912593  0.32618848     0.29900
H1517       H  0.21828406  0.32945000  0.22136749     0.30000
H1518       H  0.18582761  0.24877154  0.19875647     0.30200
Zr1519     Zr  0.24586146  0.27855575  0.99336599     2.17500
O1520       O  0.26494431  0.30321235  0.44799735    -0.52100
O1521       O  0.22035043  0.30985747  0.97552623    -0.75300
O1522       O  0.24651779  0.26267313  0.44581871    -0.82100
O1523       O  0.26336158  0.32475585  0.04624890    -0.83800
O1524       O  0.21603031  0.23825745  0.44960791    -0.79500
O1525       O  0.27572658  0.30573031  0.00529639    -0.91100
O1526       O  0.18747495  0.29138599  0.98561477    -0.77100
O1527       O  0.20818752  0.26197417  0.99728571    -0.86600
O1528       O  0.22675109  0.29819203  0.03445815    -0.86300
O1529       O  0.25243873  0.23761384  0.00050656    -0.73000
O1530       O  0.27036079  0.27062923  0.03620537    -0.85100
Zr1531     Zr  0.21945781  0.23354070  0.09119350     2.26400
Zr1532     Zr  0.21418798  0.22160813  0.00513431     2.06300
Zr1533     Zr  0.25146294  0.29076622  0.07718964     2.10000
Zr1534     Zr  0.18951714  0.28070961  0.03872797     1.78800
O1535       O  0.29180125  0.29606231  0.09217481    -0.93900
O1536       O  0.15000003  0.27017436  0.02495661    -0.41800
O1537       O  0.21330096  0.27420918  0.08264027    -0.78400
O1538       O  0.19489373  0.24037919  0.04761993    -0.97100
O1539       O  0.23726593  0.21340046  0.04973267    -0.90400
O1540       O  0.25728319  0.24977278  0.08661411    -0.93200
C1541       C  0.19803818  0.30941313  0.97614081     1.00500
C1542       C  0.27207267  0.32468531  0.01921226     1.13500
C1543       C  0.23044592  0.25076928  0.43388998     1.04200
O1544       O  0.17821801  0.21230005  0.97918606    -0.95400
O1545       O  0.19077235  0.19328222  0.03315076    -0.91100
O1546       O  0.19239433  0.20205258  0.08360806    -0.84300
C1547       C  0.18475107  0.19032828  0.06118588     1.10900
O1548       O  0.30847047  0.23226076  0.01107433    -0.97400
Zr1549     Zr  0.27503373  0.22956940  0.04551394     1.88900
O1550       O  0.24257012  0.20259204  0.11396216    -0.74000
O1551       O  0.23328768  0.18611852  0.98802097    -0.53300
O1552       O  0.28278488  0.19292632  0.02007636    -0.97900
O1553       O  0.31211872  0.23834229  0.06919791    -0.55200
O1554       O  0.27715729  0.20178047  0.08850406    -0.74500
C1555       C  0.26321832  0.19459297  0.10974423     0.97800
O1556       O  0.19126870  0.23054944  0.13290482    -0.63300
O1557       O  0.23605179  0.32481597  0.10306093    -0.58100
O1558       O  0.22781807  0.25379616  0.13842245    -0.94800
O1559       O  0.24803593  0.28735663  0.13246905    -0.93200
O1560       O  0.18039182  0.32184027  0.04429291    -0.93600
O1561       O  0.16137790  0.28296814  0.08043403    -0.92400
C1562       C  0.23808055  0.27178935  0.14907032     1.16700
H1563       H  0.22472559  0.31464831  0.03077864     0.32600
H1564       H  0.17937482  0.23444569  0.05079474     0.43500
H1565       H  0.26613007  0.24719299  0.10498528     0.37000
H1566       H  0.26024902  0.23129358  0.98284777     0.33500
H1567       H  0.14289703  0.28482889  0.01727489     0.25300
H1568       H  0.22034523  0.17523484  0.98451106     0.31200
H1569       H  0.27335638  0.18132406  0.03143368     0.37100
H1570       H  0.16378646  0.32328858  0.03856406     0.31600
H1571       H  0.24979847  0.33468820  0.10649884     0.30400
H1572       H  0.29307959  0.28805115  0.11219226     0.32100
H1573       H  0.31884941  0.22302365  0.07491738     0.31100
H1574       H  0.16939152  0.29179160  0.09640706     0.35100
H1575       H  0.17618038  0.23535949  0.12399975     0.27800
H1576       H  0.25314017  0.30433042  0.43172128     0.32100
H1577       H  0.30195212  0.23740270  0.99127789     0.34900
H1578       H  0.22692629  0.33329668  0.08736491     0.27500
H1579       H  0.18966687  0.21379745  0.13781512     0.40400
H1580       H  0.16600206  0.22124487  0.99008325     0.30400
H1581       H  0.15194343  0.26051913  0.00660994     0.38100
H1582       H  0.30794216  0.24561522  0.08881965     0.29900
H1583       H  0.23932262  0.18993888  0.96738124     0.30000
H1584       H  0.27698057  0.29224165  0.44039024     0.30200
C1585       C  0.20013606  0.37965819  0.41720970    -0.09900
C1586       C  0.17651685  0.38612986  0.41634252     0.06300
C1587       C  0.16156014  0.37299243  0.39781261    -0.03700
C1588       C  0.17031834  0.35472447  0.38003536    -0.08200
C1589       C  0.19409194  0.34860117  0.37984055     0.05400
C1590       C  0.20900944  0.36121224  0.39945461    -0.03200
Br1591     Br  0.24195129  0.35540668  0.40257483    -0.02900
H1592       H  0.21195838  0.38950090  0.43103437     0.09300
H1593       H  0.15825724  0.34524303  0.36612543     0.07300
Br1594     Br  0.12855182  0.37874259  0.39606679    -0.03300
C1595       C  0.17251022  0.36989447  0.49473038    -0.09900
C1596       C  0.15509689  0.36918170  0.98676321     0.06300
C1597       C  0.14499703  0.34825092  0.97761292    -0.03700
C1598       C  0.15946866  0.32920770  0.97073023    -0.08200
C1599       C  0.18400203  0.33089524  0.97201647     0.05400
C1600       C  0.18922532  0.35400601  0.48551007    -0.03200
Br1601     Br  0.22099157  0.36216377  0.49309328    -0.02900
H1602       H  0.17855534  0.38521428  0.50610365     0.09300
H1603       H  0.15146642  0.31265081  0.96620693     0.07300
Br1604     Br  0.11192299  0.34380163  0.97798714    -0.03300
C1605       C  0.30036423  0.39141957  0.33503328    -0.09900
C1606       C  0.32469761  0.38754579  0.33322299     0.06300
C1607       C  0.33282985  0.36806929  0.31672742    -0.03700
C1608       C  0.31689071  0.35191985  0.30573423    -0.08200
C1609       C  0.29286586  0.35499851  0.31026766     0.05400
C1610       C  0.28460398  0.37543676  0.32368150    -0.03200
Br1611     Br  0.25186687  0.38204117  0.32718158    -0.02900
H1612       H  0.29330029  0.40642958  0.34662826     0.09300
H1613       H  0.32333126  0.33639546  0.29466688     0.07300
Br1614     Br  0.36505582  0.36236297  0.30769112    -0.03300
C1615       C  0.26266478  0.48521935  0.45438332    -0.09900
C1616       C  0.27828725  0.47264517  0.47279241     0.06300
C1617       C  0.26951619  0.46164935  0.49948918    -0.03700
C1618       C  0.24558942  0.46281144  0.50665736    -0.08200
C1619       C  0.22989319  0.47529091  0.48813424     0.05400
C1620       C  0.23885905  0.48684030  0.46185984    -0.03200
Br1621     Br  0.21943246  0.50320718  0.43325475    -0.02900
H1622       H  0.26894460  0.49342476  0.43356326     0.09300
H1623       H  0.24567139  0.46173809  0.02869221     0.07300
Br1624     Br  0.28895020  0.44314488  0.52578806    -0.03300
C1625       C  0.28187292  0.34449104  0.97041197    -0.09900
C1626       C  0.27771799  0.34648840  0.00200009     0.06300
C1627       C  0.27857582  0.36890029  0.01473091    -0.03700
C1628       C  0.28600309  0.38777018  0.99650468    -0.08200
C1629       C  0.30009060  0.37672793  0.45206332     0.05400
C1630       C  0.30267913  0.35276124  0.44741387    -0.03200
Br1631     Br  0.31325084  0.34035887  0.40921134    -0.02900
H1632       H  0.28046123  0.32801090  0.95932269     0.09300
H1633       H  0.28926265  0.40419051  0.00727934     0.07300
Br1634     Br  0.27212434  0.37477824  0.05690748    -0.03300
C1635       C  0.16556784  0.13522868  0.26537429    -0.09900
C1636       C  0.16688083  0.13167038  0.23346916     0.06300
C1637       C  0.17796980  0.14886181  0.21551809    -0.03700
C1638       C  0.18572459  0.16931735  0.22911445    -0.08200
C1639       C  0.18314975  0.17344948  0.26075167     0.05400
C1640       C  0.17339069  0.15569072  0.27895273    -0.03200
Br1641     Br  0.16841187  0.15889522  0.32195526    -0.02900
H1642       H  0.15741196  0.12232440  0.28003201     0.09300
H1643       H  0.19389861  0.18222525  0.21448823     0.07300
Br1644     Br  0.18217824  0.14639655  0.17221575    -0.03300
C1645       C  0.13335127  0.16036606  0.09751828    -0.09900
C1646       C  0.13888590  0.13710940  0.09172740     0.06300
C1647       C  0.15729967  0.13184622  0.07131057    -0.03700
C1648       C  0.17149730  0.14961349  0.06000818    -0.08200
C1649       C  0.16737151  0.17260356  0.06852767     0.05400
C1650       C  0.14737838  0.17811414  0.08593593    -0.03200
Br1651     Br  0.13842699  0.20956144  0.09441287    -0.02900
H1652       H  0.11896409  0.16470292  0.11261573     0.09300
H1653       H  0.18636925  0.14535265  0.04569267     0.07300
Br1654     Br  0.16377332  0.10085441  0.05801187    -0.03300
C1655       C  0.30563901  0.19082916  0.22391266    -0.09900
C1656       C  0.28186288  0.18842572  0.23121274     0.06300
C1657       C  0.27387758  0.16649437  0.24124072    -0.03700
C1658       C  0.28958761  0.14800121  0.24445706    -0.08200
C1659       C  0.31346087  0.15043417  0.23754843     0.05400
C1660       C  0.32138690  0.17230584  0.22700308    -0.03200
Br1661     Br  0.35326423  0.17877388  0.21676716    -0.02900
H1662       H  0.31223577  0.20754147  0.21638536     0.09300
H1663       H  0.28282197  0.13139654  0.25211749     0.07300
Br1664     Br  0.24226350  0.16036729  0.25284178    -0.03300
C1665       C  0.21685202  0.02218995  0.17475876    -0.09900
C1666       C  0.20167065  0.02795075  0.19873153     0.06300
C1667       C  0.21102239  0.03311155  0.22736419    -0.03700
C1668       C  0.23525460  0.03342339  0.23125411    -0.08200
C1669       C  0.25058034  0.02855877  0.20694248     0.05400
C1670       C  0.24107833  0.02231125  0.17860883    -0.03200
Br1671     Br  0.26003644  0.01676815  0.14314138    -0.02900
H1672       H  0.20983876  0.01881337  0.15242960     0.09300
H1673       H  0.24217375  0.03851113  0.25302853     0.07300
Br1674     Br  0.19146661  0.04253653  0.26073360    -0.03300
C1675       C  0.25631463  0.15640252  0.13633554    -0.09900
C1676       C  0.27110556  0.17541582  0.13036445     0.06300
C1677       C  0.29341964  0.17527516  0.14344817    -0.03700
C1678       C  0.30134684  0.15557751  0.15934043    -0.08200
C1679       C  0.28721173  0.13597018  0.16360727     0.05400
C1680       C  0.26426862  0.13670470  0.15265483    -0.03200
Br1681     Br  0.24427272  0.11032540  0.15664585    -0.02900
H1682       H  0.23894171  0.15632643  0.12688050     0.09300
H1683       H  0.31918753  0.15511262  0.16720096     0.07300
Br1684     Br  0.31364227  0.20160745  0.14085789    -0.03300
C1685       C  0.02514191  0.42820450  0.38349620    -0.09900
C1686       C  0.02337273  0.40460251  0.39176625     0.06300
C1687       C  0.02372649  0.39827675  0.42297899    -0.03700
C1688       C  0.02696982  0.41529245  0.44471517    -0.08200
C1689       C  0.03110686  0.43846300  0.43609640     0.05400
C1690       C  0.02804686  0.44516439  0.40540710    -0.03200
Br1691     Br  0.02607521  0.47700072  0.39205610    -0.02900
H1692       H  0.02334000  0.43366563  0.35991113     0.09300
H1693       H  0.02848435  0.40985555  0.46834019     0.07300
Br1694     Br  0.02094900  0.36696199  0.43832929    -0.03300
C1695       C  0.87743179  0.29317811  0.43964710    -0.09900
C1696       C  0.88204622  0.29017943  0.40813197     0.06300
C1697       C  0.86631041  0.27651650  0.39162906    -0.03700
C1698       C  0.84625361  0.26775545  0.40596244    -0.08200
C1699       C  0.84083628  0.27224744  0.43675200     0.05400
C1700       C  0.85718834  0.28441238  0.45390762    -0.03200
Br1701     Br  0.85188651  0.29137222  0.49599255    -0.02900
H1702       H  0.88913290  0.30334544  0.45323066     0.09300
H1703       H  0.83420262  0.25795168  0.39238469     0.07300
Br1704     Br  0.86957727  0.27042693  0.34894963    -0.03300
C1705       C  0.83384297  0.32591601  0.30683266    -0.09900
C1706       C  0.85506401  0.31776840  0.29459857     0.06300
C1707       C  0.85543472  0.29652481  0.27868720    -0.03700
C1708       C  0.83530520  0.28352689  0.27670065    -0.08200
C1709       C  0.81421099  0.29181031  0.28842114     0.05400
C1710       C  0.81334556  0.31327579  0.30328142    -0.03200
Br1711     Br  0.78469844  0.32565996  0.31922066    -0.02900
H1712       H  0.83323337  0.34191062  0.31954137     0.09300
H1713       H  0.83580077  0.26751955  0.26393560     0.07300
Br1714     Br  0.88207589  0.28452971  0.25706613    -0.03300
C1715       C  0.99894089  0.07880012  0.24644649    -0.09900
C1716       C  0.01289175  0.09242742  0.26527881     0.06300
C1717       C  0.02415432  0.11191787  0.25184600    -0.03700
C1718       C  0.02381380  0.11503219  0.22027869    -0.08200
C1719       C  0.01411214  0.09804415  0.20168833     0.05400
C1720       C  0.99920709  0.08166404  0.21495530    -0.03200
Br1721     Br  0.97948332  0.06250481  0.19090615    -0.02900
H1722       H  0.98772764  0.06570617  0.25607571     0.09300
H1723       H  0.03425074  0.12879271  0.21029545     0.07300
Br1724     Br  0.04158529  0.13433734  0.27410779    -0.03300
C1725       C  0.81373442  0.16861767  0.37104427    -0.09900
C1726       C  0.81573819  0.18569665  0.39329027     0.06300
C1727       C  0.83531379  0.18566636  0.41218216    -0.03700
C1728       C  0.85205304  0.16826809  0.40946729    -0.08200
C1729       C  0.85016014  0.15072874  0.38762948     0.05400
C1730       C  0.83088988  0.15139465  0.36762737    -0.03200
Br1731     Br  0.82637886  0.12976291  0.33534887    -0.02900
H1732       H  0.79827704  0.16818460  0.35705930     0.09300
H1733       H  0.86662576  0.16852609  0.42494910     0.07300
Br1734     Br  0.83914113  0.20762772  0.44421200    -0.03300
C1735       C  0.98602621  0.21679514  0.33453307    -0.09900
C1736       C  0.97721354  0.20776587  0.36230656     0.06300
C1737       C  0.97193256  0.22358783  0.38579145    -0.03700
C1738       C  0.97358887  0.24762567  0.38048581    -0.08200
C1739       C  0.98079236  0.25664723  0.35213360     0.05400
C1740       C  0.98760129  0.24096821  0.32925489    -0.03200
Br1741     Br  0.99720900  0.25192053  0.28970384    -0.02900
H1742       H  0.99021853  0.20510041  0.31611850     0.09300
H1743       H  0.96803833  0.25942395  0.39821294     0.07300
Br1744     Br  0.96224457  0.21347873  0.42566876    -0.03300
C1745       C  0.88005006  0.18462614  0.26198270    -0.09900
C1746       C  0.88270973  0.18770689  0.29386823     0.06300
C1747       C  0.86620613  0.20198889  0.30857354    -0.03700
C1748       C  0.84735439  0.21149140  0.29212924    -0.08200
C1749       C  0.84358722  0.20648941  0.26095638     0.05400
C1750       C  0.86072511  0.19335454  0.24580431    -0.03200
Br1751     Br  0.85750791  0.18439775  0.20410849    -0.02900
H1752       H  0.89239221  0.17404917  0.24947801     0.09300
H1753       H  0.83482563  0.22207162  0.30443738     0.07300
Br1754     Br  0.86799328  0.20874479  0.35104219    -0.03300
C1755       C  0.43712432  0.09558344  0.13765848    -0.09900
C1756       C  0.44457565  0.08793041  0.16642075     0.06300
C1757       C  0.46589632  0.07619235  0.16972540    -0.03700
C1758       C  0.47882096  0.07075380  0.14393529    -0.08200
C1759       C  0.47087925  0.07760040  0.11506335     0.05400
C1760       C  0.44992110  0.09002673  0.11187526    -0.03200
Br1761     Br  0.43792211  0.09903007  0.07271456    -0.02900
H1762       H  0.42069323  0.10470138  0.13493940     0.09300
H1763       H  0.49581393  0.06262277  0.14657130     0.07300
Br1764     Br  0.47884600  0.06957821  0.20904994    -0.03300
C1765       C  0.63426713  0.15392349  0.13563687    -0.09900
C1766       C  0.63334261  0.15572440  0.10349842     0.06300
C1767       C  0.65081005  0.16905164  0.08871315    -0.03700
C1768       C  0.66792587  0.18032249  0.10595332    -0.08200
C1769       C  0.66920209  0.17755248  0.13785742     0.05400
C1770       C  0.65182541  0.16428014  0.15255699    -0.03200
Br1771     Br  0.64985713  0.16085346  0.19604997    -0.02900
H1772       H  0.62118885  0.14419404  0.14818807     0.09300
H1773       H  0.68059250  0.19098990  0.09422509     0.07300
Br1774     Br  0.65337881  0.17147790  0.04530485    -0.03300
C1775       C  0.64568376  0.13276370  0.49210688    -0.09900
C1776       C  0.62450596  0.13542429  0.47663602     0.06300
C1777       C  0.61962906  0.15656435  0.46137821    -0.03700
C1778       C  0.63507727  0.17504446  0.46357386    -0.08200
C1779       C  0.65583052  0.17268698  0.48009351     0.05400
C1780       C  0.66141479  0.15102777  0.49368391    -0.03200
Br1781     Br  0.71198039  0.13435223  0.03179334    -0.02900
H1782       H  0.67302703  0.10345550  0.02296557     0.09300
H1783       H  0.63101466  0.19125278  0.45188246     0.07300
Br1784     Br  0.59284455  0.16076400  0.43587614    -0.03300
C1785       C  0.48412699  0.38855175  0.43633278    -0.09900
C1786       C  0.46212157  0.37975005  0.42951073     0.06300
C1787       C  0.45353822  0.36099847  0.44717349    -0.03700
C1788       C  0.47594231  0.35242099  0.95760406    -0.08200
C1789       C  0.49385591  0.36730089  0.96671537     0.05400
C1790       C  0.50467126  0.38142172  0.94428795    -0.03200
Br1791     Br  0.53412417  0.39597349  0.95025173    -0.02900
H1792       H  0.49170677  0.40200792  0.42196999     0.09300
H1793       H  0.46871070  0.33961293  0.97322839     0.07300
Br1794     Br  0.42700476  0.34330564  0.43520286    -0.03300
C1795       C  0.65001375  0.31020158  0.20393729    -0.09900
C1796       C  0.65088567  0.28745829  0.19263689     0.06300
C1797       C  0.63191501  0.27890877  0.17647779    -0.03700
C1798       C  0.61244389  0.29303595  0.17186337    -0.08200
C1799       C  0.61207822  0.31639473  0.18097826     0.05400
C1800       C  0.63097373  0.32490675  0.19757474    -0.03200
Br1801     Br  0.63106508  0.35590111  0.21293925    -0.02900
H1802       H  0.66441663  0.31668740  0.21705640     0.09300
H1803       H  0.59788696  0.28587878  0.15981562     0.07300
Br1804     Br  0.63178741  0.24811665  0.16006396    -0.03300
C1805       C  0.55420623  0.23662454  0.07427898    -0.09900
C1806       C  0.53256874  0.24765662  0.06908221     0.06300
C1807       C  0.51473720  0.23437635  0.05604168    -0.03700
C1808       C  0.51871148  0.21073233  0.04893958    -0.08200
C1809       C  0.54056556  0.19975933  0.05376925     0.05400
C1810       C  0.55835667  0.21326219  0.06672655    -0.03200
Br1811     Br  0.58836214  0.20060797  0.07696706    -0.02900
H1812       H  0.56819249  0.24632234  0.08440120     0.09300
H1813       H  0.50457294  0.20086507  0.03950060     0.07300
Br1814     Br  0.48429270  0.24732754  0.04914125    -0.03300
C1815       C  0.66545271  0.28195941  0.07681236    -0.09900
C1816       C  0.66503193  0.26353011  0.05634428     0.06300
C1817       C  0.64350945  0.25303101  0.04993608    -0.03700
C1818       C  0.62285762  0.26160985  0.06309233    -0.08200
C1819       C  0.62315806  0.28083006  0.08237303     0.05400
C1820       C  0.64482427  0.29063220  0.08974138    -0.03200
Br1821     Br  0.64690432  0.31838653  0.11318977    -0.02900
H1822       H  0.66496850  0.26224382  0.59380435     0.09300
H1823       H  0.60632260  0.25485134  0.05564074     0.07300
Br1824     Br  0.64076836  0.23000082  0.01904886    -0.03300
C1825       C  0.98391849  0.49442378  0.55009674    -0.09900
C1826       C  0.97683040  0.51764180  0.55473486     0.06300
C1827       C  0.99982537  0.53693324  0.04076963    -0.03700
C1828       C  0.02371228  0.53073943  0.03871555    -0.08200
C1829       C  0.02537161  0.50498276  0.54695069     0.05400
C1830       C  0.00764805  0.48807028  0.54653546    -0.03200
Br1831     Br  0.01479570  0.45624394  0.53780671    -0.02900
H1832       H  0.97075906  0.48124872  0.54737521     0.09300
H1833       H  0.03653555  0.54439902  0.03695860     0.07300
Br1834     Br  0.99179299  0.56929686  0.04203867    -0.03300
C1835       C  0.90853462  0.48561641  0.40734800    -0.09900
C1836       C  0.89580266  0.47674014  0.43224644     0.06300
C1837       C  0.88556204  0.45479138  0.43074472    -0.03700
C1838       C  0.88934887  0.44147523  0.40495389    -0.08200
C1839       C  0.90391024  0.44950896  0.38119988     0.05400
C1840       C  0.91276188  0.47216241  0.38190390    -0.03200
Br1841     Br  0.93096204  0.48542238  0.34920209    -0.02900
H1842       H  0.91551879  0.50301954  0.40785084     0.09300
H1843       H  0.88261011  0.42397338  0.40478621     0.07300
Br1844     Br  0.86908209  0.44104630  0.46457019    -0.03300
C1845       C  0.79289594  0.64443357  0.45006734    -0.09900
C1846       C  0.81638339  0.63769629  0.44747998     0.06300
C1847       C  0.83095359  0.65141149  0.42824530    -0.03700
C1848       C  0.82173160  0.66935697  0.40980823    -0.08200
C1849       C  0.79797030  0.67532951  0.41068567     0.05400
C1850       C  0.78370796  0.66310947  0.43238520    -0.03200
Br1851     Br  0.75133101  0.67039696  0.43900196    -0.02900
H1852       H  0.78146801  0.63474795  0.46521898     0.09300
H1853       H  0.83345226  0.67893744  0.39492071     0.07300
Br1854     Br  0.86423954  0.64753003  0.42765669    -0.03300
C1855       C  0.84488853  0.67362074  0.99144486    -0.09900
C1856       C  0.83941584  0.65546429  0.01204019     0.06300
C1857       C  0.81649829  0.65446191  0.02441353    -0.03700
C1858       C  0.79976728  0.67035359  0.01504002    -0.08200
C1859       C  0.80570774  0.68925320  0.99662979     0.05400
C1860       C  0.82838763  0.69085012  0.98437802    -0.03200
Br1861     Br  0.83855912  0.71315367  0.46631428    -0.02900
H1862       H  0.86211739  0.67473985  0.98128927     0.09300
H1863       H  0.78255787  0.66946336  0.02536604     0.07300
Br1864     Br  0.80630341  0.63438685  0.05700302    -0.03300
C1865       C  0.51569245  0.50510276  0.40505171    -0.09900
C1866       C  0.53124446  0.49434083  0.42571700     0.06300
C1867       C  0.52194549  0.47720687  0.44552097    -0.03700
C1868       C  0.49808718  0.47164546  0.44517700    -0.08200
C1869       C  0.48204058  0.48314110  0.42575916     0.05400
C1870       C  0.49148936  0.49985087  0.40498022    -0.03200
Br1871     Br  0.47224392  0.51792312  0.37800569    -0.02900
H1872       H  0.52203667  0.51900771  0.39041897     0.09300
H1873       H  0.49201639  0.45846377  0.46110751     0.07300
Br1874     Br  0.54117294  0.46164596  0.47504389    -0.03300
C1875       C  0.59960986  0.48435466  0.07161547    -0.09900
C1876       C  0.58462276  0.49307404  0.04889830     0.06300
C1877       C  0.56332976  0.48190039  0.04357799    -0.03700
C1878       C  0.55945155  0.46055335  0.05725019    -0.08200
C1879       C  0.57603030  0.45021385  0.07624956     0.05400
C1880       C  0.59559522  0.46275990  0.08512486    -0.03200
Br1881     Br  0.61911960  0.44998403  0.11131579    -0.02900
H1882       H  0.61578282  0.49311861  0.07641090     0.09300
H1883       H  0.54368062  0.45146883  0.05208959     0.07300
Br1884     Br  0.53018564  0.50024199  0.53788609    -0.03300
C1885       C  0.69705362  0.62290255  0.37093967    -0.09900
C1886       C  0.67258933  0.62572104  0.37243374     0.06300
C1887       C  0.66247895  0.64551332  0.35808150    -0.03700
C1888       C  0.67689270  0.66261754  0.34529598    -0.08200
C1889       C  0.70119419  0.66046043  0.34638986     0.05400
C1890       C  0.71129033  0.64008456  0.35828300    -0.03200
Br1891     Br  0.74442501  0.63531715  0.35858992    -0.02900
H1892       H  0.70538002  0.60763650  0.38076894     0.09300
H1893       H  0.66909631  0.67834062  0.33593594     0.07300
Br1894     Br  0.62954668  0.65160279  0.35669969    -0.03300
C1895       C  0.73889759  0.51847139  0.48766151    -0.09900
C1896       C  0.72292822  0.53123961  0.50524671     0.06300
C1897       C  0.73147227  0.54489763  0.52901993    -0.03700
C1898       C  0.75557605  0.54637830  0.53397253    -0.08200
C1899       C  0.77174888  0.53422114  0.51573529     0.05400
C1900       C  0.76299502  0.51954115  0.49287730    -0.03200
Br1901     Br  0.78276727  0.50236772  0.46559784    -0.02900
H1902       H  0.73263960  0.50841668  0.46876445     0.09300
H1903       H  0.76801442  0.54979990  0.04235026     0.07300
Br1904     Br  0.71101412  0.56357272  0.55350635    -0.03300
C1905       C  0.70808530  0.62306729  0.03043793    -0.09900
C1906       C  0.69468429  0.62209076  0.51880876     0.06300
C1907       C  0.71463406  0.63197459  0.50554369    -0.03700
C1908       C  0.72452311  0.65146736  0.51912292    -0.08200
C1909       C  0.71406162  0.66480632  0.03282742     0.05400
C1910       C  0.71345626  0.64278363  0.04737632    -0.03200
Br1911     Br  0.71718330  0.63838512  0.09046756    -0.02900
H1912       H  0.70570320  0.60664843  0.04235928     0.09300
H1913       H  0.73896696  0.65998142  0.50765672     0.07300
Br1914     Br  0.72831515  0.62001691  0.46890433    -0.03300
C1915       C  0.97202063  0.98566496  0.12107839    -0.09900
C1916       C  0.95582832  0.00416569  0.11850106     0.06300
C1917       C  0.96491251  0.02697807  0.11758546    -0.03700
C1918       C  0.98917233  0.03089598  0.11981060    -0.08200
C1919       C  0.00520434  0.01247660  0.12402529     0.05400
C1920       C  0.99624864  0.98966475  0.12421462    -0.03200
Br1921     Br  0.01655578  0.96347015  0.13037604    -0.02900
H1922       H  0.96567685  0.96802855  0.12285048     0.09300
H1923       H  0.99536674  0.04860816  0.12028007     0.07300
Br1924     Br  0.94459163  0.05356990  0.11510300    -0.03300
C1925       C  0.85204935  0.04057218  0.25405119    -0.09900
C1926       C  0.85922027  0.05178141  0.22696423     0.06300
C1927       C  0.87741245  0.06776093  0.22779049    -0.03700
C1928       C  0.89186374  0.06769304  0.25292192    -0.08200
C1929       C  0.88758381  0.05267379  0.27780253     0.05400
C1930       C  0.86640502  0.04056840  0.27949281    -0.03200
Br1931     Br  0.85782168  0.02126394  0.31371460    -0.02900
H1932       H  0.83744450  0.02876588  0.25398381     0.09300
H1933       H  0.90710140  0.07859025  0.25231683     0.07300
Br1934     Br  0.88507997  0.08712057  0.19330919    -0.03300
C1935       C  0.79692003  0.88645434  0.26850401    -0.09900
C1936       C  0.80780570  0.88401639  0.23974131     0.06300
C1937       C  0.81445053  0.86142475  0.23089032    -0.03700
C1938       C  0.81015726  0.84228686  0.25028848    -0.08200
C1939       C  0.79873168  0.84451109  0.27883172     0.05400
C1940       C  0.79226020  0.86721987  0.28779150    -0.03200
Br1941     Br  0.77684619  0.87359398  0.32573991    -0.02900
H1942       H  0.79200706  0.90362144  0.27621322     0.09300
H1943       H  0.81585231  0.82535642  0.24262762     0.07300
Br1944     Br  0.83072089  0.85537474  0.19344240    -0.03300
C1945       C  0.86123287  0.84551292  0.12410929    -0.09900
C1946       C  0.85993259  0.86708279  0.10939138     0.06300
C1947       C  0.84835925  0.86917076  0.08139720    -0.03700
C1948       C  0.83300097  0.85194174  0.07306641    -0.08200
C1949       C  0.83040344  0.83213629  0.09160578     0.05400
C1950       C  0.84670370  0.82769786  0.11494418    -0.03200
Br1951     Br  0.84990063  0.79812043  0.13502134    -0.02900
H1952       H  0.87129657  0.84338333  0.14473614     0.09300
H1953       H  0.82185850  0.85492760  0.05358481     0.07300
Br1954     Br  0.84980126  0.89713173  0.05718216    -0.03300
C1955       C  0.48867358  0.99043934  0.26589616    -0.09900
C1956       C  0.50325803  0.99222963  0.23973161     0.06300
C1957       C  0.49364815  0.00355886  0.21390744    -0.03700
C1958       C  0.47026287  0.01102571  0.21363324    -0.08200
C1959       C  0.45506710  0.00832518  0.23891171     0.05400
C1960       C  0.46499288  0.99850274  0.26575322    -0.03200
Br1961     Br  0.44672423  0.99427996  0.30209338    -0.02900
H1962       H  0.49532680  0.98181303  0.28612357     0.09300
H1963       H  0.46391676  0.01917841  0.19289740     0.07300
Br1964     Br  0.51178813  0.00973163  0.17770248    -0.03300
C1965       C  0.59621681  0.95804988  0.07500360    -0.09900
C1966       C  0.57518166  0.95385435  0.09086601     0.06300
C1967       C  0.55417845  0.95730695  0.07527790    -0.03700
C1968       C  0.55446810  0.97156367  0.04937290    -0.08200
C1969       C  0.57510009  0.98354582  0.04149476     0.05400
C1970       C  0.59640607  0.97357200  0.05046615    -0.03200
Br1971     Br  0.62607539  0.98468581  0.03637686    -0.02900
H1972       H  0.61274199  0.95313014  0.08505291     0.09300
H1973       H  0.53788292  0.97740726  0.04041246     0.07300
Br1974     Br  0.52464860  0.94713133  0.09081220    -0.03300
C1975       C  0.68261560  0.86579652  0.26920462    -0.09900
C1976       C  0.65910602  0.85972042  0.27429229     0.06300
C1977       C  0.65324350  0.83606826  0.27494514    -0.03700
C1978       C  0.67030785  0.81935042  0.26903159    -0.08200
C1979       C  0.69379653  0.82524337  0.26367841     0.05400
C1980       C  0.69986024  0.84894862  0.26369829    -0.03200
Br1981     Br  0.73086616  0.85987506  0.25546094    -0.02900
H1982       H  0.68759024  0.88389239  0.26824945     0.09300
H1983       H  0.66496694  0.80140873  0.26888679     0.07300
Br1984     Br  0.62250207  0.82502499  0.28446776    -0.03300
C1985       C  0.73395666  0.98406184  0.15444306    -0.09900
C1986       C  0.74944922  0.96616858  0.16373331     0.06300
C1987       C  0.74053520  0.94833301  0.18281194    -0.03700
C1988       C  0.71716725  0.94845989  0.19182917    -0.08200
C1989       C  0.70145066  0.96605844  0.18266747     0.05400
C1990       C  0.71010646  0.98395514  0.16329707    -0.03200
Br1991     Br  0.69063947  0.00905696  0.14928001    -0.02900
H1992       H  0.74040767  0.99818398  0.14026839     0.09300
H1993       H  0.71127782  0.93428093  0.20634596     0.07300
Br1994     Br  0.75944465  0.92386375  0.19998435    -0.03300
C1995       C  0.70620793  0.87019257  0.18140263    -0.09900
C1996       C  0.68377627  0.86330510  0.19103881     0.06300
C1997       C  0.67782074  0.83957510  0.18844588    -0.03700
C1998       C  0.69335159  0.82388231  0.17517940    -0.08200
C1999       C  0.71461838  0.83113276  0.16264936     0.05400
C2000       C  0.72154899  0.85433405  0.16697650    -0.03200
Br2001     Br  0.75034307  0.86572573  0.15041832    -0.02900
H2002       H  0.71104864  0.88829252  0.18270748     0.09300
H2003       H  0.68785426  0.80608302  0.17225412     0.07300
Br2004     Br  0.64767032  0.82745611  0.19908810    -0.03300
C2005       C  0.01692589  0.48363805  0.25891790    -0.09900
C2006       C  0.00084199  0.50208194  0.25462228     0.06300
C2007       C  0.97690007  0.49634857  0.25564721    -0.03700
C2008       C  0.96964791  0.47317180  0.26182480    -0.08200
C2009       C  0.98586478  0.45500436  0.26741360     0.05400
C2010       C  0.00972876  0.46065228  0.26545631    -0.03200
Br2011     Br  0.03318669  0.43800693  0.27565500    -0.02900
H2012       H  0.03535511  0.48750235  0.25975875     0.09300
H2013       H  0.95120582  0.46967486  0.26429812     0.07300
Br2014     Br  0.95353762  0.52025362  0.25286455    -0.03300
C2015       C  0.98417767  0.56574908  0.40796102    -0.09900
C2016       C  0.97141307  0.57614948  0.38394720     0.06300
C2017       C  0.95253539  0.59099101  0.39100523    -0.03700
C2018       C  0.94779407  0.59613673  0.42122903    -0.08200
C2019       C  0.96017493  0.58527182  0.44507530     0.05400
C2020       C  0.97874608  0.57018825  0.43824244    -0.03200
Br2021     Br  0.99735482  0.55527385  0.46916514    -0.02900
H2022       H  0.99910883  0.55466134  0.40339798     0.09300
H2023       H  0.93314415  0.60755054  0.42602208     0.07300
Br2024     Br  0.93153816  0.60384425  0.36112821    -0.03300
C2025       C  0.10038669  0.51584619  0.39556292    -0.09900
C2026       C  0.11403765  0.53377063  0.40725198     0.06300
C2027       C  0.12613884  0.54855590  0.38712140    -0.03700
C2028       C  0.12219703  0.54705409  0.35595121    -0.08200
C2029       C  0.10560805  0.53149320  0.34496062     0.05400
C2030       C  0.09681452  0.51420004  0.36441373    -0.03200
Br2031     Br  0.07907086  0.48896228  0.34883663    -0.02900
H2032       H  0.09288964  0.50275457  0.41046220     0.09300
H2033       H  0.12940074  0.56039653  0.34107582     0.07300
Br2034     Br  0.14563953  0.57293111  0.40137456    -0.03300
C2035       C  0.14295246  0.68215855  0.37452067    -0.09900
C2036       C  0.13934151  0.70550118  0.38172223     0.06300
C2037       C  0.12041901  0.71744061  0.36793210    -0.03700
C2038       C  0.10423453  0.70531125  0.35001797    -0.08200
C2039       C  0.10771205  0.68163076  0.34365696     0.05400
C2040       C  0.12790386  0.67051814  0.35527697    -0.03200
Br2041     Br  0.13647932  0.63935954  0.34464991    -0.02900
H2042       H  0.15851618  0.67322360  0.38245516     0.09300
H2043       H  0.08894105  0.71427649  0.34140155     0.07300
Br2044     Br  0.11670589  0.75035442  0.37223513    -0.03300
C2045       C  0.14845804  0.65041695  0.26668252    -0.09900
C2046       C  0.12691909  0.65699093  0.25406864     0.06300
C2047       C  0.12280404  0.68101426  0.24785761    -0.03700
C2048       C  0.14071773  0.69697319  0.25120417    -0.08200
C2049       C  0.16298230  0.68955296  0.25945886     0.05400
C2050       C  0.16621494  0.66656742  0.26993869    -0.03200
Br2051     Br  0.19573806  0.65600962  0.28513758    -0.02900
H2052       H  0.15184347  0.63253811  0.27335591     0.09300
H2053       H  0.13804684  0.71470386  0.24324205     0.07300
Br2054     Br  0.09417765  0.69403873  0.23287572    -0.03300
C2055       C  0.95854529  0.95821670  0.37835192    -0.09900
C2056       C  0.98091495  0.94908571  0.38456552     0.06300
C2057       C  0.99758670  0.96499667  0.39546987    -0.03700
C2058       C  0.99225054  0.98917968  0.39795540    -0.08200
C2059       C  0.97019526  0.99842042  0.38988455     0.05400
C2060       C  0.95316128  0.98218447  0.38107574    -0.03200
Br2061     Br  0.92230062  0.99224509  0.37050337    -0.02900
H2062       H  0.94545312  0.94681681  0.36930645     0.09300
H2063       H  0.00597724  0.00098220  0.40407992     0.07300
Br2064     Br  0.02894265  0.95494837  0.40319893    -0.03300
C2065       C  0.07824268  0.97000717  0.32063639    -0.09900
C2066       C  0.05433710  0.96504119  0.32132895     0.06300
C2067       C  0.03845015  0.98265697  0.31236435    -0.03700
C2068       C  0.04651114  0.00099750  0.29445973    -0.08200
C2069       C  0.07010014  0.00191628  0.28607222     0.05400
C2070       C  0.08631366  0.98861608  0.30307030    -0.03200
Br2071     Br  0.11934486  0.99366050  0.30159173    -0.02900
H2072       H  0.09084280  0.95786673  0.33012592     0.09300
H2073       H  0.03386762  0.01265022  0.28413398     0.07300
Br2074     Br  0.00543213  0.98120667  0.31937042    -0.03300
C2075       C  0.94951297  0.91831830  0.20679856    -0.09900
C2076       C  0.94155112  0.93962897  0.21833981     0.06300
C2077       C  0.93794841  0.94152387  0.25013011    -0.03700
C2078       C  0.94083450  0.92201463  0.26891960    -0.08200
C2079       C  0.94793865  0.90048393  0.25720896     0.05400
C2080       C  0.95210257  0.89868422  0.22555337    -0.03200
Br2081     Br  0.96110372  0.87033465  0.20583855    -0.02900
H2082       H  0.95314123  0.91673199  0.18269926     0.09300
H2083       H  0.93823391  0.92392214  0.29324155     0.07300
Br2084     Br  0.92955963  0.96986811  0.27030539    -0.03300
C2085       C  0.13279096  0.80753841  0.32247518    -0.09900
C2086       C  0.12728354  0.82774437  0.33873609     0.06300
C2087       C  0.14424921  0.83782665  0.35707048    -0.03700
C2088       C  0.16542588  0.82628119  0.36129316    -0.08200
C2089       C  0.17016005  0.80479635  0.34732116     0.05400
C2090       C  0.15402206  0.79607288  0.32638725    -0.03200
Br2091     Br  0.15928880  0.76855637  0.30279865    -0.02900
H2092       H  0.12019010  0.80024383  0.30711999     0.09300
H2093       H  0.17756491  0.83352618  0.37727185     0.07300
Br2094     Br  0.13887485  0.86591854  0.37925269    -0.03300
C2095       C  0.99947494  0.74376222  0.27626847    -0.09900
C2096       C  0.00085835  0.75391798  0.30502144     0.06300
C2097       C  0.00173938  0.73920206  0.33100889    -0.03700
C2098       C  0.00253567  0.71488646  0.32782756    -0.08200
C2099       C  0.00289778  0.70478051  0.29886066     0.05400
C2100       C  0.00073024  0.71953754  0.27303376    -0.03200
Br2101     Br  0.00059623  0.70750244  0.23256826    -0.02900
H2102       H  0.99897859  0.75475259  0.25605879     0.09300
H2103       H  0.00448433  0.70396098  0.34793946     0.07300
Br2104     Br  0.00287761  0.75169784  0.37123373    -0.03300
C2105       C  0.09698564  0.77849055  0.22028263    -0.09900
C2106       C  0.09858171  0.79990684  0.23535614     0.06300
C2107       C  0.11965764  0.81230367  0.23236851    -0.03700
C2108       C  0.13878695  0.80291101  0.21645824    -0.08200
C2109       C  0.13751808  0.78144203  0.20178921     0.05400
C2110       C  0.11618072  0.76937681  0.20347824    -0.03200
Br2111     Br  0.11296803  0.74024812  0.18354975    -0.02900
H2112       H  0.08080340  0.76895883  0.22130220     0.09300
H2113       H  0.15506910  0.81231537  0.21605876     0.07300
Br2114     Br  0.12349345  0.84231836  0.25005663    -0.03300
C2115       C  0.51398528  0.85571630  0.16126796    -0.09900
C2116       C  0.49508233  0.86968703  0.15211411     0.06300
C2117       C  0.48421401  0.88418115  0.17381615    -0.03700
C2118       C  0.49517440  0.88811882  0.20141926    -0.08200
C2119       C  0.51639916  0.87714761  0.20828063     0.05400
C2120       C  0.52420723  0.85875452  0.18967888    -0.03200
Br2121     Br  0.54922128  0.83799304  0.20072867    -0.02900
H2122       H  0.52131863  0.84292363  0.14596618     0.09300
H2123       H  0.48808458  0.90123960  0.21644264     0.07300
Br2124     Br  0.45429616  0.89862629  0.16783898    -0.03300
C2125       C  0.36896003  0.95720273  0.11954782    -0.09900
C2126       C  0.37561577  0.98016930  0.11370363     0.06300
C2127       C  0.38581468  0.98613529  0.08538927    -0.03700
C2128       C  0.39107743  0.96867620  0.06460325    -0.08200
C2129       C  0.38715080  0.94538508  0.07230935     0.05400
C2130       C  0.37483965  0.93981597  0.09915261    -0.03200
Br2131     Br  0.36685666  0.90853842  0.10965235    -0.02900
H2132       H  0.36043909  0.95253479  0.14086830     0.09300
H2133       H  0.39943266  0.97319097  0.04323939     0.07300
Br2134     Br  0.39321334  0.01751953  0.07413199    -0.03300
C2135       C  0.51168510  0.96058277  0.98739115    -0.09900
C2136       C  0.49103758  0.95438586  0.00320928     0.06300
C2137       C  0.47607057  0.97280593  0.01212071    -0.03700
C2138       C  0.48218770  0.99613410  0.00726558    -0.08200
C2139       C  0.50338105  0.00258483  0.99343276     0.05400
C2140       C  0.51798467  0.98431177  0.98276666    -0.03200
Br2141     Br  0.50588725  0.00214562  0.47632076    -0.02900
H2142       H  0.48598417  0.95779818  0.49773268     0.09300
H2143       H  0.47062338  0.00953535  0.01593149     0.07300
Br2144     Br  0.44649487  0.96745948  0.03112625    -0.03300
C2145       C  0.33308035  0.80146546  0.04791232    -0.09900
C2146       C  0.35426457  0.78906324  0.04885106     0.06300
C2147       C  0.35483692  0.76702429  0.06290075    -0.03700
C2148       C  0.33473466  0.75813891  0.07699696    -0.08200
C2149       C  0.31415279  0.77154575  0.07867266     0.05400
C2150       C  0.31319516  0.79306660  0.06299981    -0.03200
Br2151     Br  0.28564509  0.81226242  0.06293911    -0.02900
H2152       H  0.33258547  0.81875251  0.03784132     0.09300
H2153       H  0.33582338  0.74160359  0.08899401     0.07300
Br2154     Br  0.38369758  0.75048618  0.06778365    -0.03300
C2155       C  0.33964011  0.83255422  0.96307582    -0.09900
C2156       C  0.36343506  0.82461644  0.45063231     0.06300
C2157       C  0.36780728  0.80495123  0.43237932    -0.03700
C2158       C  0.34969345  0.78964644  0.42620656    -0.08200
C2159       C  0.32731427  0.79342555  0.43831834     0.05400
C2160       C  0.32082779  0.81788128  0.95815438    -0.03200
Br2161     Br  0.29253416  0.82430524  0.98010667    -0.02900
H2162       H  0.33798827  0.84564420  0.98048779     0.09300
H2163       H  0.35335155  0.77419336  0.41311899     0.07300
Br2164     Br  0.39817204  0.79753139  0.41625850    -0.03300
C2165       C  0.46878051  0.48795243  0.13070984    -0.09900
C2166       C  0.48450727  0.50446156  0.11822707     0.06300
C2167       C  0.50583352  0.49579443  0.10677916    -0.03700
C2168       C  0.51024989  0.47164156  0.10560301    -0.08200
C2169       C  0.49375661  0.45489712  0.11510390     0.05400
C2170       C  0.47329567  0.46354699  0.12949177    -0.03200
Br2171     Br  0.45006468  0.44285638  0.14536900    -0.02900
H2172       H  0.45208510  0.49391948  0.13940239     0.09300
H2173       H  0.52677481  0.46584651  0.09677094     0.07300
Br2174     Br  0.52914254  0.51662192  0.09134859    -0.03300
C2175       C  0.51807817  0.56234189  0.44815244    -0.09900
C2176       C  0.53052462  0.58246855  0.44078883     0.06300
C2177       C  0.52446881  0.60339740  0.45495994    -0.03700
C2178       C  0.50942770  0.60281255  0.47993459    -0.08200
C2179       C  0.50447321  0.58404292  0.98138846     0.05400
C2180       C  0.50871501  0.56405166  0.96378273    -0.03200
Br2181     Br  0.49629457  0.53378640  0.97233889    -0.02900
H2182       H  0.52183102  0.54644182  0.43621796     0.09300
H2183       H  0.50613572  0.61899714  0.49152634     0.07300
Br2184     Br  0.53689312  0.63304355  0.44291693    -0.03300
C2185       C  0.43789783  0.44947820  0.06940952    -0.09900
C2186       C  0.41588369  0.44012615  0.06643958     0.06300
C2187       C  0.39885164  0.44910406  0.08643931    -0.03700
C2188       C  0.39950050  0.47293147  0.09269988    -0.08200
C2189       C  0.41838597  0.48604646  0.08143674     0.05400
C2190       C  0.43866481  0.47361265  0.07085954    -0.03200
Br2191     Br  0.46568778  0.48651328  0.05088737    -0.02900
H2192       H  0.44103860  0.43871270  0.56318432     0.09300
H2193       H  0.38450988  0.48128161  0.10313007     0.07300
Br2194     Br  0.37123949  0.43186854  0.09519812    -0.03300
C2195       C  0.30800882  0.64425041  0.13330504    -0.09900
C2196       C  0.31295154  0.66068420  0.15575100     0.06300
C2197       C  0.33215734  0.65650761  0.17507716    -0.03700
C2198       C  0.34672595  0.63735372  0.17012327    -0.08200
C2199       C  0.34271761  0.62177923  0.14639534     0.05400
C2200       C  0.32248292  0.62484518  0.12868200    -0.03200
Br2201     Br  0.31425342  0.60423799  0.09662190    -0.02900
H2202       H  0.29289749  0.64663102  0.11893734     0.09300
H2203       H  0.36206766  0.63524327  0.18414648     0.07300
Br2204     Br  0.34096616  0.67687137  0.20725304    -0.03300
C2205       C  0.44401392  0.73521216  0.03094566    -0.09900
C2206       C  0.44727597  0.75076354  0.05492435     0.06300
C2207       C  0.44644365  0.74175932  0.08515347    -0.03700
C2208       C  0.44243069  0.71788138  0.09056861    -0.08200
C2209       C  0.43949487  0.70246440  0.06636599     0.05400
C2210       C  0.44025376  0.71151797  0.03631236    -0.03200
Br2211     Br  0.43493010  0.69261465  0.00136556    -0.02900
H2212       H  0.44415592  0.74156815  0.00760716     0.09300
H2213       H  0.44190588  0.71128922  0.11378212     0.07300
Br2214     Br  0.44925000  0.76115335  0.12008132    -0.03300
C2215       C  0.31938589  0.64692289  0.02871846    -0.09900
C2216       C  0.34017982  0.65826233  0.03591142     0.06300
C2217       C  0.34295813  0.68154148  0.02688731    -0.03700
C2218       C  0.32525367  0.69312505  0.01092414    -0.08200
C2219       C  0.30478561  0.68161319  0.00251219     0.05400
C2220       C  0.30171263  0.65833010  0.01229026    -0.03200
Br2221     Br  0.27591415  0.63825509  0.50444906    -0.02900
H2222       H  0.31734585  0.62873722  0.03466924     0.09300
H2223       H  0.32818246  0.71087789  0.00344432     0.07300
Br2224     Br  0.37205573  0.69699126  0.03165509    -0.03300
Zr2225     Zr  0.40109548  0.63011726  0.60896737     2.17500
O2226       O  0.38745635  0.65853866  0.64592086    -0.52100
O2227       O  0.36859776  0.64688437  0.57859558    -0.75300
O2228       O  0.42034614  0.66806690  0.60322433    -0.82100
O2229       O  0.35515623  0.58786673  0.63201122    -0.83800
O2230       O  0.44901382  0.66215903  0.56844411    -0.79500
O2231       O  0.37905074  0.61381217  0.65061074    -0.91100
O2232       O  0.36751633  0.62830272  0.53325369    -0.77100
O2233       O  0.41744718  0.62918082  0.55929974    -0.86600
O2234       O  0.38065476  0.60026463  0.58276657    -0.86300
O2235       O  0.44174789  0.62104755  0.61822538    -0.73000
O2236       O  0.40856813  0.59412085  0.63698646    -0.85100
Zr2237     Zr  0.44493710  0.55624821  0.56623795     2.26400
Zr2238     Zr  0.45766880  0.62061028  0.56802823     2.06300
Zr2239     Zr  0.38734432  0.56466629  0.61076944     2.10000
Zr2240     Zr  0.39734689  0.59921090  0.53341776     1.78800
O2241       O  0.38175840  0.55010857  0.66260292    -0.93900
O2242       O  0.40498101  0.62542557  0.49044522    -0.41800
O2243       O  0.40380906  0.56335637  0.56027751    -0.78400
O2244       O  0.43759658  0.59189559  0.53923980    -0.97100
O2245       O  0.46642928  0.58436152  0.59343736    -0.90400
O2246       O  0.42759458  0.55630169  0.61562860    -0.93200
C2247       C  0.36004594  0.64347035  0.55190555     1.00500
C2248       C  0.35843327  0.60697679  0.64587006     1.13500
C2249       C  0.43581801  0.67560120  0.58421384     1.04200
O2250       O  0.47833100  0.64537885  0.53159421    -0.95400
O2251       O  0.48133043  0.60262736  0.52950433    -0.91100
O2252       O  0.47679589  0.56356872  0.53026790    -0.84300
C2253       C  0.48541550  0.58237131  0.51893966     1.10900
O2254       O  0.45203868  0.60957745  0.68586256    -0.97400
Zr2255     Zr  0.44917132  0.58337212  0.64297027     1.88900
O2256       O  0.46991042  0.53076886  0.59743181    -0.74000
O2257       O  0.49153603  0.62917661  0.59888381    -0.53300
O2258       O  0.49042342  0.59091716  0.65028452    -0.97900
O2259       O  0.43713747  0.56670726  0.69192454    -0.55200
O2260       O  0.46498009  0.54234539  0.64633713    -0.74500
C2261       C  0.47102288  0.52691236  0.62636835     0.97800
O2262       O  0.44445202  0.53368249  0.51970581    -0.63300
O2263       O  0.35255611  0.54600447  0.59175933    -0.58100
O2264       O  0.42695242  0.51951429  0.57378992    -0.94800
O2265       O  0.39492067  0.52263456  0.60425038    -0.93200
O2266       O  0.36213179  0.57918649  0.51841353    -0.93600
O2267       O  0.40351395  0.57833066  0.48606658    -0.92400
C2268       C  0.41059052  0.51069154  0.58978124     1.16700
H2269       H  0.36410410  0.60311840  0.58137872     0.32600
H2270       H  0.44279401  0.59109027  0.51835240     0.43500
H2271       H  0.42827046  0.54147410  0.62591746     0.37000
H2272       H  0.44875465  0.63330553  0.62973509     0.33500
H2273       H  0.38855360  0.62857484  0.96990537     0.25300
H2274       H  0.50207974  0.61564063  0.59623809     0.31200
H2275       H  0.49301111  0.58825198  0.67232525     0.37100
H2276       H  0.36167214  0.56502455  0.53141554     0.31600
H2277       H  0.34402862  0.54088429  0.61033458     0.30400
H2278       H  0.38278016  0.56400822  0.67554120     0.32100
H2279       H  0.43265416  0.55054386  0.68746964     0.31100
H2280       H  0.40825641  0.56628813  0.97915533     0.35100
H2281       H  0.42783591  0.53042830  0.51582848     0.27800
H2282       H  0.38132179  0.67184621  0.63383146     0.32100
H2283       H  0.43747929  0.61893322  0.68515686     0.34900
H2284       H  0.34294750  0.55887618  0.58331863     0.27500
H2285       H  0.45145233  0.51840202  0.52487413     0.40400
H2286       H  0.46802826  0.64634131  0.51363132     0.30400
H2287       H  0.42171165  0.62313661  0.48554265     0.38100
H2288       H  0.42219641  0.57456811  0.69688633     0.29900
H2289       H  0.49945885  0.64199624  0.58779992     0.30000
H2290       H  0.40156182  0.66440168  0.65600555     0.30200
Zr2291     Zr  0.42303135  0.82064672  0.51908495     2.17500
O2292       O  0.43603769  0.79607489  0.96293758    -0.52100
O2293       O  0.38730491  0.79852841  0.52751248    -0.75300
O2294       O  0.43682382  0.78316843  0.53842195    -0.82100
O2295       O  0.37783418  0.85569311  0.47990571    -0.83800
O2296       O  0.45323428  0.79046737  0.58391007    -0.79500
O2297       O  0.39996981  0.82325977  0.47402866    -0.91100
O2298       O  0.38707676  0.79975140  0.57836288    -0.77100
O2299       O  0.42362643  0.81778711  0.57299405    -0.86600
O2300       O  0.39032841  0.84293164  0.53702193    -0.86300
O2301       O  0.46021342  0.83713300  0.53230411    -0.73000
O2302       O  0.43018514  0.85943770  0.49935029    -0.85100
Zr2303     Zr  0.43237618  0.89434558  0.58808714     2.26400
Zr2304     Zr  0.46007820  0.83309712  0.58664849     2.06300
Zr2305     Zr  0.39682954  0.88067185  0.51658488     2.10000
Zr2306     Zr  0.39156828  0.83989861  0.59095701     1.78800
O2307       O  0.41214307  0.90621634  0.95773402    -0.93900
O2308       O  0.39296556  0.81949738  0.63985969    -0.41800
O2309       O  0.39649771  0.87811797  0.57130874    -0.78400
O2310       O  0.42765222  0.85511800  0.60721150    -0.97100
O2311       O  0.46587641  0.87311443  0.57124317    -0.90400
O2312       O  0.43172003  0.89823873  0.53387682    -0.93200
C2313       C  0.37841863  0.79308755  0.55344935     1.00500
C2314       C  0.38206058  0.83575831  0.46805398     1.13500
C2315       C  0.44537157  0.77624062  0.56395902     1.04200
O2316       O  0.48031325  0.81074189  0.62601279    -0.95400
O2317       O  0.46883469  0.85072876  0.63474832    -0.91100
O2318       O  0.45259349  0.88673655  0.63610040    -0.84300
C2319       C  0.46444901  0.86995361  0.64806282     1.10900
O2320       O  0.49110844  0.85159564  0.94721847    -0.97400
Zr2321     Zr  0.46530189  0.87789476  0.51731309     1.88900
O2322       O  0.45401155  0.92885913  0.57051598    -0.74000
O2323       O  0.50015338  0.82992787  0.56820550    -0.53300
O2324       O  0.51437189  0.86724315  0.99399135    -0.97900
O2325       O  0.46505731  0.88708119  0.93740690    -0.55200
O2326       O  0.47297085  0.92010730  0.52674691    -0.74500
C2327       C  0.46678222  0.93484184  0.54750757     0.97800
O2328       O  0.42484294  0.92296886  0.62748665    -0.63300
O2329       O  0.35593318  0.89193608  0.51235341    -0.58100
O2330       O  0.39328987  0.91039392  0.58525405    -0.94800
O2331       O  0.38647037  0.91836933  0.53585480    -0.93200
O2332       O  0.34952139  0.83891793  0.58418282    -0.93600
O2333       O  0.37077698  0.86161977  0.63009026    -0.92400
C2334       C  0.38526454  0.92349269  0.56397073     1.16700
H2335       H  0.37526176  0.83774524  0.53043105     0.32600
H2336       H  0.42645308  0.85411163  0.62910729     0.43500
H2337       H  0.43108104  0.91410810  0.52661930     0.37000
H2338       H  0.47248196  0.82777226  0.52340652     0.33500
H2339       H  0.37880282  0.80978012  0.64026233     0.25300
H2340       H  0.50974513  0.83514768  0.58541540     0.31200
H2341       H  0.51916934  0.87902339  0.00885405     0.37100
H2342       H  0.34380920  0.82847388  0.60067666     0.31600
H2343       H  0.35357605  0.89526307  0.49040657     0.30400
H2344       H  0.40042351  0.91893067  0.95825778     0.32100
H2345       H  0.46060054  0.90358863  0.94000762     0.31100
H2346       H  0.38317277  0.86867891  0.64238703     0.35100
H2347       H  0.44039591  0.92833400  0.63365852     0.27800
H2348       H  0.42704244  0.78162215  0.96608764     0.32100
H2349       H  0.48205427  0.83713425  0.94533649     0.34900
H2350       H  0.34711414  0.87751465  0.51652041     0.27500
H2351       H  0.41785937  0.93663181  0.61700067     0.40400
H2352       H  0.46802076  0.80598223  0.64073737     0.30400
H2353       H  0.40601299  0.80825232  0.63768231     0.38100
H2354       H  0.45051072  0.87945232  0.93109079     0.29900
H2355       H  0.50319227  0.81300088  0.56709958     0.30000
H2356       H  0.45243139  0.79153513  0.96688422     0.30200
Zr2357     Zr  0.04521653  0.82299940  0.81505209     2.17500
O2358       O  0.05556460  0.79856834  0.85868753    -0.52100
O2359       O  0.06974709  0.80431577  0.77470710    -0.75300
O2360       O  0.02443810  0.78641560  0.81292983    -0.82100
O2361       O  0.09814659  0.86176433  0.82423539    -0.83800
O2362       O  0.98731522  0.79513729  0.79885055    -0.79500
O2363       O  0.08560252  0.82445707  0.82814236    -0.91100
O2364       O  0.06582919  0.82614786  0.73147110    -0.77100
O2365       O  0.01992724  0.82637671  0.77268219    -0.86600
O2366       O  0.06183335  0.85226286  0.78349821    -0.86300
O2367       O  0.00835949  0.83541004  0.83744139    -0.73000
O2368       O  0.04650616  0.85745894  0.84621294    -0.85100
Zr2369     Zr  0.00228101  0.90228364  0.79186927     2.26400
Zr2370     Zr  0.98309389  0.83796334  0.79405806     1.99900
Zr2371     Zr  0.06424636  0.88599226  0.81347679     2.10000
Zr2372     Zr  0.03688459  0.85598905  0.74128790     1.78800
O2373       O  0.08326020  0.90113278  0.85833682    -0.93900
O2374       O  0.01862609  0.83053401  0.70472979    -0.41800
O2375       O  0.03929249  0.89096316  0.77044615    -0.78400
O2376       O  0.00011555  0.86777328  0.76133679    -0.97100
O2377       O  0.98431773  0.87339050  0.82332593    -0.90400
O2378       O  0.02801027  0.89870689  0.83347704    -0.93200
C2379       C  0.07525835  0.80953316  0.74675829     1.00500
C2380       C  0.10153025  0.83987240  0.82825234     1.13500
C2381       C  0.00360110  0.78052501  0.80619239     1.04200
O2382       O  0.96178330  0.81787905  0.75473521    -0.95400
O2383       O  0.95377500  0.86197782  0.76796128    -0.91100
O2384       O  0.96247896  0.89057329  0.79792089    -0.84300
C2385       C  0.95225791  0.88349444  0.77439682     1.10900
O2386       O  0.00883512  0.84688989  0.91086791    -0.97400
Zr2387     Zr  0.00932331  0.87196560  0.86571391     1.88900
O2388       O  0.98794126  0.93067923  0.82829420    -0.74000
O2389       O  0.95143001  0.82965004  0.82977808    -0.53300
O2390       O  0.96986003  0.86841105  0.88612167    -0.97900
O2391       O  0.03436586  0.88296318  0.90753982    -0.55200
O2392       O  0.99672750  0.91426502  0.87420760    -0.74500
C2393       C  0.98981681  0.93190300  0.85736394     0.97800
O2394       O  0.99053304  0.92428007  0.74679076    -0.63300
O2395       O  0.09512428  0.89851861  0.77873243    -0.58100
O2396       O  0.02426451  0.93721844  0.79352107    -0.94800
O2397       O  0.06078429  0.92796697  0.80920542    -0.93200
O2398       O  0.06847290  0.87365859  0.71203206    -0.93600
O2399       O  0.02403096  0.87911342  0.69766879    -0.92400
C2400       C  0.04479300  0.94265429  0.80163892     1.16700
H2401       H  0.07738631  0.84850378  0.77670662     0.32600
H2402       H  0.99069446  0.87102610  0.74376658     0.43500
H2403       H  0.03067835  0.91293089  0.84411799     0.37000
H2404       H  0.00276782  0.82320371  0.85085011     0.33500
H2405       H  0.01966307  0.81475720  0.71390484     0.25300
H2406       H  0.93715567  0.83091222  0.81733345     0.31200
H2407       H  0.96211922  0.88340966  0.88116877     0.37100
H2408       H  0.08214693  0.87262432  0.72555763     0.31600
H2409       H  0.08696594  0.90682853  0.76201206     0.30400
H2410       H  0.07310172  0.91404457  0.86526401     0.32100
H2411       H  0.03790092  0.89953324  0.90355998     0.31100
H2412       H  0.02325891  0.89522291  0.70522217     0.35100
H2413       H  0.98637348  0.93987668  0.75443503     0.27800
H2414       H  0.05993360  0.78328044  0.85016848     0.32100
H2415       H  0.00112124  0.83245694  0.90448911     0.34900
H2416       H  0.10337944  0.91083209  0.78975374     0.27500
H2417       H  0.00517171  0.92671446  0.73513519     0.40400
H2418       H  0.97402148  0.81133746  0.74123244     0.30400
H2419       H  0.00184012  0.83458871  0.70570882     0.38100
H2420       H  0.04931947  0.87475468  0.90369698     0.29900
H2421       H  0.95296990  0.81284874  0.83451821     0.30000
H2422       H  0.04070789  0.79593519  0.86975983     0.30200
Zr2423     Zr  0.05110991  0.64638799  0.77671118     2.17500
O2424       O  0.04274560  0.67515456  0.73674179    -0.52100
O2425       O  0.07692762  0.66859158  0.81171792    -0.75300
O2426       O  0.02591979  0.67883575  0.78731192    -0.82100
O2427       O  0.10872035  0.62182153  0.76488230    -0.83800
O2428       O  0.99208991  0.66402063  0.80630776    -0.79500
O2429       O  0.08555963  0.64981332  0.74627585    -0.91100
O2430       O  0.07687199  0.65026504  0.85798923    -0.77100
O2431       O  0.03217826  0.63919212  0.82385548    -0.86600
O2432       O  0.07660926  0.62148833  0.80483290    -0.86300
O2433       O  0.01563697  0.62686853  0.76260188    -0.73000
O2434       O  0.05528055  0.61248572  0.74456090    -0.85100
Zr2435     Zr  0.02998244  0.56081812  0.81055502     2.26400
Zr2436     Zr  0.99678606  0.62097329  0.81057137     2.06300
Zr2437     Zr  0.08246800  0.58898582  0.77199109     2.10000
Zr2438     Zr  0.05732084  0.61407478  0.85182431     1.78800
O2439       O  0.08665869  0.57897396  0.71852202    -0.93900
O2440       O  0.03703663  0.63362664  0.89330910    -0.41800
O2441       O  0.06460211  0.58143534  0.82068761    -0.78400
O2442       O  0.02213591  0.59570638  0.83979358    -0.97100
O2443       O  0.00257821  0.58486436  0.78367645    -0.90400
O2444       O  0.04810045  0.56699174  0.76208682    -0.93200
C2445       C  0.08348563  0.66647477  0.83986236     1.00500
C2446       C  0.10514626  0.64289854  0.75614947     1.13500
C2447       C  0.00523547  0.68116051  0.79791651     1.04200
O2448       O  0.98238708  0.63243919  0.86047024    -0.95400
O2449       O  0.97553647  0.58514990  0.81874484    -0.91100
O2450       O  0.99429279  0.55509268  0.83867101    -0.84300
C2451       C  0.97938714  0.57144465  0.84123239     1.10900
O2452       O  0.01421395  0.61434140  0.69038240    -0.97400
Zr2453     Zr  0.02016658  0.59010382  0.73556391     1.88900
O2454       O  0.01974232  0.53047943  0.77667221    -0.74000
O2455       O  0.95900200  0.62935768  0.78785339    -0.53300
O2456       O  0.97883987  0.59361030  0.72395541    -0.97900
O2457       O  0.03789633  0.57557773  0.68884231    -0.55200
O2458       O  0.00706678  0.54819543  0.73350538    -0.74500
C2459       C  0.00999437  0.52987450  0.75077994     0.97800
O2460       O  0.02368289  0.52728097  0.84380981    -0.63300
O2461       O  0.12295996  0.57571291  0.77097417    -0.58100
O2462       O  0.06675222  0.54429143  0.82863789    -0.94800
O2463       O  0.09614807  0.55345259  0.79604819    -0.93200
O2464       O  0.09453914  0.60348818  0.87455441    -0.93600
O2465       O  0.05445268  0.58625780  0.89402735    -0.92400
C2466       C  0.08820436  0.54324775  0.81992458     1.16700
H2467       H  0.09122153  0.62819170  0.81042516     0.32600
H2468       H  0.01546674  0.59226422  0.85940931     0.43500
H2469       H  0.05221705  0.55283260  0.75171294     0.37000
H2470       H  0.00621130  0.63733039  0.75040457     0.33500
H2471       H  0.02355459  0.62362044  0.89834517     0.25300
H2472       H  0.95235463  0.64238100  0.79969503     0.31200
H2473       H  0.97474703  0.57868652  0.71451110     0.37100
H2474       H  0.09571771  0.61341798  0.89270683     0.31600
H2475       H  0.12913290  0.58060889  0.75079172     0.30400
H2476       H  0.08975149  0.59394116  0.70793175     0.32100
H2477       H  0.02464610  0.56978730  0.67688182     0.31100
H2478       H  0.05514578  0.57082717  0.88434620     0.35100
H2479       H  0.03124045  0.51406873  0.83329138     0.27800
H2480       H  0.02736260  0.67072733  0.72871074     0.32100
H2481       H  0.02601973  0.62670791  0.69193454     0.34900
H2482       H  0.13114948  0.58559251  0.78568427     0.27500
H2483       H  0.03339138  0.53002701  0.86191704     0.40400
H2484       H  0.96898409  0.64289059  0.85620695     0.30400
H2485       H  0.04753248  0.63182598  0.91098072     0.38100
H2486       H  0.04643542  0.56132672  0.69514663     0.29900
H2487       H  0.96270760  0.63623221  0.76761520     0.30000
H2488       H  0.05362421  0.67177323  0.71973942     0.30200
Zr2489     Zr  0.26161727  0.74750073  0.96747780     2.17500
O2490       O  0.28053947  0.76632934  0.50878532    -0.52100
O2491       O  0.28765161  0.71400766  0.48728353    -0.75300
O2492       O  0.24196503  0.73982190  0.51547159    -0.82100
O2493       O  0.30033842  0.77592190  0.90575961    -0.83800
O2494       O  0.20313992  0.73343051  0.51024545    -0.79500
O2495       O  0.29321774  0.77483363  0.95682322    -0.91100
O2496       O  0.27637126  0.68322248  0.96285113    -0.77100
O2497       O  0.23571350  0.71556866  0.96448382    -0.86600
O2498       O  0.27562789  0.72606090  0.92477319    -0.86300
O2499       O  0.22278235  0.76322585  0.96332539    -0.73000
O2500       O  0.25906218  0.77309876  0.92457357    -0.85100
Zr2501     Zr  0.20859921  0.73744713  0.87282003     2.26400
Zr2502     Zr  0.19685152  0.73072658  0.95732139     2.06300
Zr2503     Zr  0.27192008  0.75151219  0.88098697     2.10000
Zr2504     Zr  0.24945230  0.69425811  0.92215169     1.78800
O2505       O  0.29092292  0.78010010  0.84796178    -0.93900
O2506       O  0.23115461  0.66397992  0.95324107    -0.41800
O2507       O  0.24625464  0.71935379  0.87777813    -0.78400
O2508       O  0.21085711  0.70968681  0.91412533    -0.97100
O2509       O  0.19478233  0.75793292  0.91592356    -0.90400
O2510       O  0.23430738  0.76911330  0.87637194    -0.93200
C2511       C  0.28777690  0.69435034  0.98294633     1.00500
C2512       C  0.30441234  0.78229398  0.93313895     1.13500
C2513       C  0.22148499  0.73609593  0.52649992     1.04200
O2514       O  0.18217244  0.69470747  0.97959071    -0.95400
O2515       O  0.16293692  0.71665699  0.92697685    -0.91100
O2516       O  0.16897836  0.72565931  0.87685349    -0.84300
C2517       C  0.15678164  0.71707555  0.89855239     1.10900
O2518       O  0.22923198  0.81668263  0.96091400    -0.97400
Zr2519     Zr  0.22116811  0.78930351  0.92057963     1.88900
O2520       O  0.18554376  0.77081879  0.85557968    -0.74000
O2521       O  0.16553849  0.75460998  0.97821115    -0.53300
O2522       O  0.18526404  0.80598886  0.94107985    -0.97900
O2523       O  0.24279034  0.82245948  0.90042831    -0.55200
O2524       O  0.19826728  0.80303447  0.87886264    -0.74500
C2525       C  0.18519033  0.79283121  0.85998277     0.97800
O2526       O  0.19846750  0.70717162  0.83687370    -0.63300
O2527       O  0.30454028  0.72523281  0.87110000    -0.58100
O2528       O  0.22385070  0.74395724  0.82271828    -0.94800
O2529       O  0.26322112  0.74611658  0.82594309    -0.93200
O2530       O  0.28153828  0.67518489  0.89538918    -0.93600
O2531       O  0.23635477  0.66233263  0.89094158    -0.92400
C2532       C  0.24414604  0.74479225  0.81061269     1.16700
H2533       H  0.29158715  0.72104903  0.92750929     0.32600
H2534       H  0.20075950  0.69677120  0.91009699     0.43500
H2535       H  0.23382395  0.77904546  0.85848164     0.37000
H2536       H  0.22125246  0.77124807  0.47899060     0.33500
H2537       H  0.23186317  0.66962248  0.97441835     0.25300
H2538       H  0.15726692  0.74661411  0.48599604     0.31200
H2539       H  0.18459099  0.82199068  0.93256160     0.37100
H2540       H  0.29570215  0.67936787  0.90672968     0.31600
H2541       H  0.29901564  0.71507669  0.85469042     0.30400
H2542       H  0.30163374  0.77104236  0.83479042     0.32100
H2543       H  0.24886222  0.81726517  0.88044631     0.31100
H2544       H  0.23609732  0.66879791  0.86993728     0.35100
H2545       H  0.21353458  0.70132093  0.82874261     0.27800
H2546       H  0.28336018  0.75484861  0.52537504     0.32100
H2547       H  0.24080396  0.80862166  0.97398163     0.34900
H2548       H  0.31657691  0.73505877  0.86122768     0.27500
H2549       H  0.19268697  0.69407626  0.84959834     0.40400
H2550       H  0.16677163  0.69892384  0.98834074     0.30400
H2551       H  0.21440292  0.66486884  0.94813933     0.38100
H2552       H  0.25683040  0.82340060  0.91328845     0.29900
H2553       H  0.17388121  0.76805586  0.48411403     0.30000
H2554       H  0.26776672  0.77641477  0.51639491     0.30200
Zr2555     Zr  0.25556008  0.71930139  0.62261375     2.17500
O2556       O  0.26597835  0.68862541  0.58702718    -0.52100
O2557       O  0.28681232  0.74160494  0.60102267    -0.75300
O2558       O  0.23902060  0.72649936  0.57270492    -0.82100
O2559       O  0.29142828  0.69301401  0.68780108    -0.83800
O2560       O  0.20217695  0.74137010  0.57512489    -0.79500
O2561       O  0.28393788  0.68968007  0.63733302    -0.91100
O2562       O  0.28157101  0.77891793  0.61586704    -0.77100
O2563       O  0.23492251  0.75524363  0.61980752    -0.86600
O2564       O  0.27321392  0.74295670  0.66011187    -0.86300
O2565       O  0.21517608  0.71046162  0.63030766    -0.73000
O2566       O  0.25020131  0.69965644  0.67010702    -0.85100
Zr2567     Zr  0.20695249  0.75005871  0.71508525     2.26400
Zr2568     Zr  0.19450368  0.74717427  0.62998884     2.06300
Zr2569     Zr  0.26700207  0.72389818  0.70812379     2.10000
Zr2570     Zr  0.25235275  0.77882269  0.65691109     1.78800
O2571       O  0.28274195  0.69593120  0.74476241    -0.93900
O2572       O  0.23667109  0.80912187  0.62347540    -0.41800
O2573       O  0.24676281  0.76027430  0.70586976    -0.78400
O2574       O  0.21185483  0.77121223  0.66787884    -0.97100
O2575       O  0.18953104  0.72678005  0.67728466    -0.90400
O2576       O  0.22734667  0.71412740  0.71734823    -0.93200
C2577       C  0.29223784  0.76306851  0.60061132     1.00500
C2578       C  0.29441356  0.68331538  0.66188356     1.13500
C2579       C  0.22033962  0.73432133  0.56022932     1.04200
O2580       O  0.18377474  0.78238449  0.60195879    -0.95400
O2581       O  0.15977332  0.76387534  0.65713950    -0.91100
O2582       O  0.16832315  0.76455292  0.70770125    -0.84300
C2583       C  0.15467946  0.76827440  0.68535959     1.10900
O2584       O  0.21115769  0.65629493  0.64757498    -0.97400
Zr2585     Zr  0.21043808  0.69111989  0.67848197     1.88900
O2586       O  0.18168005  0.72365955  0.74356839    -0.74000
O2587       O  0.16235191  0.72421081  0.61121952    -0.53300
O2588       O  0.17161098  0.68019284  0.66200888    -0.97900
O2589       O  0.22626505  0.65662617  0.70382466    -0.55200
O2590       O  0.18902123  0.68778372  0.72476889    -0.74500
C2591       C  0.17910233  0.70153648  0.74340092     0.97800
O2592       O  0.19893475  0.78605425  0.74218234    -0.63300
O2593       O  0.30268827  0.74621843  0.71218501    -0.58100
O2594       O  0.22450209  0.74959864  0.76475336    -0.94800
O2595       O  0.26133334  0.73497590  0.76193148    -0.93200
O2596       O  0.28744935  0.79550623  0.67812545    -0.93600
O2597       O  0.24737334  0.81520783  0.68392543    -0.92400
C2598       C  0.24390799  0.74350541  0.77688607     1.16700
H2599       H  0.28975319  0.74474786  0.65680072     0.32600
H2600       H  0.20347885  0.78581074  0.66897665     0.43500
H2601       H  0.22621561  0.70678993  0.73720423     0.37000
H2602       H  0.20968319  0.70071096  0.61417620     0.33500
H2603       H  0.25038500  0.81838460  0.61715134     0.25300
H2604       H  0.15516477  0.71728004  0.62975225     0.31200
H2605       H  0.16312186  0.67525375  0.68068806     0.37100
H2606       H  0.30032648  0.78499348  0.67190774     0.31600
H2607       H  0.30093633  0.75471162  0.73153482     0.30400
H2608       H  0.29730551  0.70300481  0.75204423     0.32100
H2609       H  0.21245050  0.64796644  0.71124696     0.31100
H2610       H  0.23661568  0.81141963  0.70099481     0.35100
H2611       H  0.21443664  0.79197610  0.74781543     0.27800
H2612       H  0.27327855  0.69657325  0.56925821     0.32100
H2613       H  0.22719573  0.65553232  0.63912213     0.34900
H2614       H  0.31502474  0.73448727  0.71623222     0.27500
H2615       H  0.19340981  0.79728696  0.72651358     0.40400
H2616       H  0.18673153  0.79518717  0.61620034     0.30400
H2617       H  0.23205292  0.80096766  0.60479294     0.38100
H2618       H  0.23357554  0.66251423  0.72251492     0.29900
H2619       H  0.15076157  0.73584368  0.60405986     0.30000
H2620       H  0.25101208  0.68264192  0.57944623     0.30200
Zr2621     Zr  0.55632950  0.94951418  0.68530069     2.17500
O2622       O  0.52404687  0.94624900  0.65007537    -0.52100
O2623       O  0.52809660  0.97824764  0.70177765    -0.75300
O2624       O  0.52928142  0.92043353  0.70324783    -0.82100
O2625       O  0.59622761  0.97483692  0.62425580    -0.83800
O2626       O  0.54505300  0.89645660  0.73913353    -0.79500
O2627       O  0.56186024  0.95600140  0.63001310    -0.91100
O2628       O  0.53878908  0.98970868  0.74841699    -0.77100
O2629       O  0.56083483  0.94652901  0.73907293    -0.86600
O2630       O  0.57804251  0.98349621  0.69710786    -0.86300
O2631       O  0.57507884  0.91254899  0.69557727    -0.73000
O2632       O  0.59302939  0.94695901  0.66141766    -0.85100
Zr2633     Zr  0.64098914  0.94017503  0.73198181     2.26400
Zr2634     Zr  0.58322487  0.91189908  0.74964626     2.06300
Zr2635     Zr  0.61582235  0.97963863  0.67251878     2.10000
Zr2636     Zr  0.58187090  0.98029294  0.75106279     1.78800
O2637       O  0.62454224  0.00405156  0.62811345    -0.93900
O2638       O  0.56700602  0.97529952  0.80292966    -0.41800
O2639       O  0.62018547  0.97684666  0.72619752    -0.78400
O2640       O  0.60534139  0.94551685  0.76185198    -0.97100
O2641       O  0.61746889  0.90809261  0.71930454    -0.90400
O2642       O  0.63475534  0.94265374  0.67863883    -0.93200
C2643       C  0.52354988  0.98848328  0.72682325     1.00500
C2644       C  0.57788823  0.96546194  0.61333109     1.13500
C2645       C  0.52845736  0.90305673  0.72172700     1.04200
O2646       O  0.57497070  0.92274030  0.80209350    -0.95400
O2647       O  0.61748686  0.88651941  0.75857004    -0.91100
O2648       O  0.64531577  0.91133011  0.77176271    -0.84300
C2649       C  0.63814055  0.89062551  0.76837719     1.10900
O2650       O  0.58623803  0.90352777  0.62253062    -0.97400
Zr2651     Zr  0.61051625  0.91046063  0.66668103     1.88900
O2652       O  0.66726790  0.90907283  0.71128477    -0.74000
O2653       O  0.57444266  0.87664501  0.77889584    -0.53300
O2654       O  0.59915374  0.86982737  0.66955995    -0.97900
O2655       O  0.63059093  0.91204510  0.61750515    -0.55200
O2656       O  0.64656242  0.89069695  0.67507671    -0.74500
C2657       C  0.66456385  0.89273759  0.69160589     0.97800
O2658       O  0.66491053  0.95695371  0.77149106    -0.63300
O2659       O  0.61360143  0.01968200  0.68960795    -0.58100
O2660       O  0.67338691  0.96182137  0.71077995    -0.94800
O2661       O  0.65885919  0.98142229  0.66984197    -0.93200
O2662       O  0.58126570  0.02226359  0.74295309    -0.93600
O2663       O  0.60301346  0.00105728  0.78998716    -0.92400
C2664       C  0.67589727  0.97420810  0.68653744     1.16700
H2665       H  0.57000990  0.99752097  0.69071232     0.32600
H2666       H  0.60944803  0.94529747  0.78313747     0.43500
H2667       H  0.64892980  0.94098541  0.66686067     0.37000
H2668       H  0.56590772  0.89954408  0.68919231     0.33500
H2669       H  0.56037856  0.99066205  0.80832575     0.25300
H2670       H  0.55908576  0.87920013  0.78881773     0.31200
H2671       H  0.60199655  0.86380397  0.64883013     0.37100
H2672       H  0.56617310  0.02575989  0.73306554     0.31600
H2673       H  0.62885066  0.02644565  0.68382280     0.30400
H2674       H  0.64028567  0.99923793  0.62113175     0.32100
H2675       H  0.64743328  0.91166373  0.62219176     0.31100
H2676       H  0.61967004  0.99835279  0.78500759     0.35100
H2677       H  0.66365352  0.97394943  0.76799975     0.27800
H2678       H  0.50972699  0.94934254  0.66213962     0.32100
H2679       H  0.57009654  0.90644358  0.62976958     0.34900
H2680       H  0.60225937  0.02741130  0.67589210     0.27500
H2681       H  0.65605292  0.95423336  0.79064293     0.40400
H2682       H  0.55776876  0.92215050  0.80387361     0.30400
H2683       H  0.55317693  0.96530454  0.80088555     0.38100
H2684       H  0.62769990  0.92803644  0.60977241     0.29900
H2685       H  0.57172923  0.86452554  0.76358127     0.30000
H2686       H  0.52328246  0.92953716  0.64513984     0.30200
Zr2687     Zr  0.89317092  0.99903241  0.67919021     2.17500
O2688       O  0.91416320  0.01872274  0.71896120    -0.52100
O2689       O  0.92211977  0.01312546  0.64356413    -0.75300
O2690       O  0.92724079  0.97970966  0.70059752    -0.82100
O2691       O  0.84005470  0.03644358  0.69438254    -0.83800
O2692       O  0.92361750  0.95309907  0.66605322    -0.79500
O2693       O  0.87755366  0.03852569  0.68009660    -0.91100
O2694       O  0.91563523  0.99220180  0.60130868    -0.77100
O2695       O  0.89877371  0.96912152  0.64234427    -0.86600
O2696       O  0.86701112  0.00927108  0.63896490    -0.86300
O2697       O  0.88320415  0.96239554  0.70399236    -0.73000
O2698       O  0.85467944  0.99842720  0.70133393    -0.85100
Zr2699     Zr  0.82285166  0.94272917  0.65164412     2.26400
Zr2700     Zr  0.88682503  0.93302690  0.66550425     2.06300
Zr2701     Zr  0.82802497  0.00702318  0.66020059     2.10000
Zr2702     Zr  0.87367105  0.98004261  0.60264843     1.78800
O2703       O  0.80455752  0.04197704  0.66854517    -0.93900
O2704       O  0.89273035  0.95220282  0.56896934    -0.41800
O2705       O  0.83374529  0.97760000  0.62317687    -0.78400
O2706       O  0.86045790  0.94462449  0.62581631    -0.97100
O2707       O  0.84960695  0.93266557  0.69029470    -0.90400
O2708       O  0.81878937  0.97215929  0.68840541    -0.93200
C2709       C  0.92877898  0.00498151  0.61799390     1.00500
C2710       C  0.86028762  0.04513842  0.69650583     1.13500
C2711       C  0.93169725  0.95918412  0.69160725     1.04200
O2712       O  0.91471750  0.90397005  0.64781405    -0.95400
O2713       O  0.87333570  0.90083560  0.63509391    -0.91100
O2714       O  0.83427458  0.90654579  0.62936503    -0.84300
C2715       C  0.85329749  0.89526503  0.62489752     1.10900
O2716       O  0.85956201  0.98213420  0.77187938    -0.97400
Zr2717     Zr  0.84576597  0.96259668  0.72693802     1.88900
O2718       O  0.81166366  0.91468076  0.69339010    -0.74000
O2719       O  0.89338248  0.90863262  0.71051802    -0.53300
O2720       O  0.86805357  0.93866044  0.76268415    -0.97900
O2721       O  0.81504913  0.98193102  0.75602130    -0.55200
O2722       O  0.82058695  0.93022097  0.73894622    -0.74500
C2723       C  0.81213512  0.91395033  0.72296001     0.97800
O2724       O  0.79343580  0.93060339  0.61552450    -0.63300
O2725       O  0.82480079  0.02598997  0.61044604    -0.58100
O2726       O  0.78312548  0.95871117  0.65235817    -0.94800
O2727       O  0.78652553  0.99718895  0.66197450    -0.93200
O2728       O  0.86884886  0.01585678  0.57304612    -0.93600
O2729       O  0.85709227  0.97341996  0.55268013    -0.92400
C2730       C  0.77433960  0.97879937  0.65837238     1.16700
H2731       H  0.87023093  0.02434354  0.63003383     0.32600
H2732       H  0.86086971  0.93491313  0.60816937     0.43500
H2733       H  0.80392603  0.97206818  0.69876831     0.37000
H2734       H  0.89354025  0.95883766  0.72095313     0.33500
H2735       H  0.90680959  0.96017261  0.56107934     0.25300
H2736       H  0.87796589  0.90701173  0.72053961     0.31200
H2737       H  0.85653883  0.93312928  0.77799641     0.37100
H2738       H  0.88492418  0.02070343  0.56781000     0.31600
H2739       H  0.80791829  0.02606582  0.60596352     0.30400
H2740       H  0.79110159  0.04102389  0.65468391     0.32100
H2741       H  0.80114000  0.97202462  0.75406890     0.31100
H2742       H  0.84039655  0.97757822  0.55495187     0.35100
H2743       H  0.79114134  0.91377498  0.61923990     0.27800
H2744       H  0.90278187  0.01973913  0.73591352     0.32100
H2745       H  0.87516732  0.98787781  0.76582863     0.34900
H2746       H  0.82858927  0.04247240  0.61402250     0.27500
H2747       H  0.80113835  0.93171958  0.59531017     0.40400
H2748       H  0.92136059  0.91067628  0.62879193     0.30400
H2749       H  0.89887281  0.93986895  0.58270810     0.38100
H2750       H  0.81136771  0.99620653  0.74411838     0.29900
H2751       H  0.89672246  0.89297552  0.70242339     0.30000
H2752       H  0.91625892  0.03484511  0.71143059     0.30200
Zr2753     Zr  0.58498123  0.54632080  0.96665716     2.17500
O2754       O  0.55399012  0.56459659  0.99628048    -0.52100
O2755       O  0.55941954  0.51753859  0.94776047    -0.75300
O2756       O  0.56980831  0.56282958  0.91966888    -0.82100
O2757       O  0.61648066  0.50716092  0.02159040    -0.83800
O2758       O  0.57205767  0.59964193  0.90967156    -0.79500
O2759       O  0.58048628  0.52161303  0.01051447    -0.91100
O2760       O  0.57788219  0.50731171  0.90380135    -0.77100
O2761       O  0.59538677  0.55203826  0.91483235    -0.86600
O2762       O  0.61179237  0.51549284  0.95640807    -0.86300
O2763       O  0.59974596  0.58490321  0.96218771    -0.73000
O2764       O  0.61728403  0.54998620  0.00015045    -0.85100
Zr2765     Zr  0.67114004  0.56548278  0.93408603     2.26400
Zr2766     Zr  0.61288398  0.58970789  0.90967526     2.06300
Zr2767     Zr  0.64582368  0.52109305  0.98664788     2.10000
Zr2768     Zr  0.62009418  0.52084369  0.90404914     1.78800
O2769       O  0.65897792  0.50491505  0.03511515    -0.93900
O2770       O  0.60769073  0.52697578  0.85160646    -0.41800
O2771       O  0.65511266  0.52667215  0.93426455    -0.78400
O2772       O  0.63958324  0.55848480  0.89893442    -0.97100
O2773       O  0.64345440  0.59499724  0.94518057    -0.90400
O2774       O  0.65989385  0.55971568  0.98570739    -0.93200
C2775       C  0.55982289  0.50729768  0.92213493     1.00500
C2776       C  0.59441744  0.50882248  0.02602925     1.13500
C2777       C  0.55987316  0.58264298  0.91864729     1.04200
O2778       O  0.59965881  0.58690233  0.85734652    -0.95400
O2779       O  0.64304896  0.60975802  0.88097096    -0.91100
O2780       O  0.67792983  0.59650136  0.89778565    -0.84300
C2781       C  0.66534750  0.61037859  0.88173130     1.10900
O2782       O  0.58889250  0.60238343  0.53777621    -0.97400
Zr2783     Zr  0.63111036  0.58850661  0.99655257     1.88900
O2784       O  0.69160159  0.59563450  0.96318280    -0.74000
O2785       O  0.60853777  0.63144045  0.91651993    -0.53300
O2786       O  0.62254815  0.62991576  0.99195412    -0.97900
O2787       O  0.62806845  0.59159098  0.55954573    -0.55200
O2788       O  0.66747617  0.60697120  0.00171024    -0.74500
C2789       C  0.68669413  0.60761480  0.98711304     0.97800
O2790       O  0.70205844  0.55349971  0.89908721    -0.63300
O2791       O  0.65131502  0.48231661  0.96613718    -0.58100
O2792       O  0.70366467  0.54587196  0.95797081    -0.94800
O2793       O  0.68866224  0.52124615  0.99377836    -0.93200
O2794       O  0.62268880  0.47880977  0.91025459    -0.93600
O2795       O  0.64723662  0.50327336  0.86798576    -0.92400
C2796       C  0.70589534  0.53142613  0.98018330     1.16700
H2797       H  0.60485076  0.50051503  0.96041394     0.32600
H2798       H  0.64543868  0.56021659  0.87833627     0.43500
H2799       H  0.67268568  0.56143085  0.99959388     0.37000
H2800       H  0.58776130  0.59614691  0.96716707     0.33500
H2801       H  0.59127167  0.53228697  0.85326770     0.25300
H2802       H  0.59704930  0.63659000  0.90110934     0.31200
H2803       H  0.61480562  0.63961462  0.51297192     0.37100
H2804       H  0.61374005  0.47262395  0.89301714     0.31600
H2805       H  0.66798352  0.47862656  0.96950762     0.30400
H2806       H  0.66427877  0.48893471  0.03042230     0.32100
H2807       H  0.63153626  0.60800190  0.56408655     0.31100
H2808       H  0.66242801  0.50323814  0.87851337     0.35100
H2809       H  0.69502177  0.55451516  0.87860514     0.27800
H2810       H  0.54713489  0.55204056  0.00900719     0.32100
H2811       H  0.57840102  0.61182212  0.52469474     0.34900
H2812       H  0.64283003  0.47198156  0.98054244     0.27500
H2813       H  0.71359140  0.56619598  0.89935048     0.40400
H2814       H  0.60018214  0.60302013  0.84926028     0.30400
H2815       H  0.61625718  0.54087496  0.84440189     0.38100
H2816       H  0.64306874  0.58325709  0.56244557     0.29900
H2817       H  0.60027852  0.63310302  0.93626212     0.30000
H2818       H  0.55356337  0.57663015  0.51692643     0.30200
Zr2819     Zr  0.92367923  0.54403351  0.97388941     2.17500
O2820       O  0.94909952  0.53452048  0.93117694    -0.52100
O2821       O  0.95131876  0.52269566  0.00506426    -0.75300
O2822       O  0.95362097  0.57379528  0.97715565    -0.82100
O2823       O  0.87991947  0.49885403  0.95115994    -0.83800
O2824       O  0.93983076  0.60946958  0.96854616    -0.79500
O2825       O  0.91703662  0.51095944  0.94187504    -0.91100
O2826       O  0.93879388  0.53581883  0.56734471    -0.77100
O2827       O  0.92403679  0.56967090  0.01603639    -0.86600
O2828       O  0.90083558  0.52393181  0.01139259    -0.86300
O2829       O  0.90675819  0.58001090  0.95574147    -0.73000
O2830       O  0.88555523  0.53956270  0.95359651    -0.85100
Zr2831     Zr  0.84462273  0.58225617  0.01260567     2.26400
Zr2832     Zr  0.90552530  0.60527769  0.99987086     2.06300
Zr2833     Zr  0.86191947  0.52133832  0.99147564     2.10000
Zr2834     Zr  0.89620941  0.54778455  0.56853266     1.78800
O2835       O  0.84113773  0.48790799  0.97218511    -0.93900
O2836       O  0.91323821  0.57265474  0.60674043    -0.41800
O2837       O  0.86217055  0.54702010  0.03328482    -0.78400
O2838       O  0.87796132  0.58378267  0.55114592    -0.97100
O2839       O  0.86914792  0.59980803  0.97553430    -0.90400
O2840       O  0.84536041  0.55645392  0.97078787    -0.93200
C2841       C  0.95740826  0.52641507  0.03252123     1.00500
C2842       C  0.89950742  0.49789865  0.93685412     1.13500
C2843       C  0.95374072  0.59288388  0.96200769     1.04200
O2844       O  0.92126178  0.61286568  0.55863005    -0.95400
O2845       O  0.87213635  0.63252873  0.51312361    -0.91100
O2846       O  0.84661658  0.61833702  0.54683599    -0.84300
C2847       C  0.85357989  0.63464581  0.52944217     1.10900
O2848       O  0.88705610  0.55466323  0.89012465    -0.97400
Zr2849     Zr  0.86964686  0.57431709  0.93364746     1.88900
O2850       O  0.82632446  0.61158816  0.97612117    -0.74000
O2851       O  0.91674134  0.64584895  0.99325089    -0.53300
O2852       O  0.88509694  0.59958143  0.89359415    -0.97900
O2853       O  0.83678711  0.55873206  0.90587039    -0.55200
O2854       O  0.84467474  0.60777295  0.93040413    -0.74500
C2855       C  0.83080610  0.61854908  0.94829677     0.97800
O2856       O  0.81651358  0.58277874  0.57296996    -0.63300
O2857       O  0.86519384  0.49439800  0.03445339    -0.58100
O2858       O  0.80828543  0.56042608  0.01023606    -0.94800
O2859       O  0.81932632  0.52366065  0.99801745    -0.93200
O2860       O  0.89595132  0.50996390  0.59402765    -0.93600
O2861       O  0.87416093  0.54840710  0.61619017    -0.92400
C2862       C  0.80367603  0.53916751  0.00395258     1.16700
H2863       H  0.90738638  0.50883285  0.01625553     0.32600
H2864       H  0.87694916  0.59385868  0.56852424     0.43500
H2865       H  0.83032476  0.55448710  0.96161290     0.37000
H2866       H  0.91534464  0.58593216  0.93853931     0.33500
H2867       H  0.91789989  0.56191969  0.62345227     0.25300
H2868       H  0.93322719  0.64672875  0.99956398     0.31200
H2869       H  0.87205084  0.60180200  0.87919788     0.37100
H2870       H  0.90851174  0.51080301  0.60927851     0.31600
H2871       H  0.84942844  0.49426054  0.04380833     0.30400
H2872       H  0.83333300  0.48065739  0.99007642     0.32100
H2873       H  0.84127744  0.54245116  0.90155235     0.31100
H2874       H  0.85899506  0.55560450  0.61075446     0.35100
H2875       H  0.81497486  0.56644596  0.58002235     0.27800
H2876       H  0.96512491  0.53646629  0.93877579     0.32100
H2877       H  0.90310214  0.55068719  0.89661113     0.34900
H2878       H  0.86706329  0.47888277  0.02525051     0.27500
H2879       H  0.82701010  0.58966921  0.58811125     0.40400
H2880       H  0.93805549  0.61208324  0.55328280     0.30400
H2881       H  0.92821050  0.57774101  0.59761249     0.38100
H2882       H  0.83733638  0.56674661  0.88579123     0.29900
H2883       H  0.91700584  0.64875800  0.97096445     0.30000
H2884       H  0.94661813  0.54725583  0.91618947     0.30200
Zr2885     Zr  0.75951138  0.78842185  0.77394457     2.17500
O2886       O  0.77251423  0.81281171  0.73132494    -0.52100
O2887       O  0.72924605  0.81877690  0.76691086    -0.75300
O2888       O  0.75561850  0.77007109  0.72489986    -0.82100
O2889       O  0.78313067  0.83051174  0.82571720    -0.83800
O2890       O  0.73824344  0.73492675  0.72862254    -0.79500
O2891       O  0.79267374  0.81220857  0.78314942    -0.91100
O2892       O  0.69906299  0.79667553  0.77800520    -0.77100
O2893       O  0.72377510  0.76861131  0.78090464    -0.86600
O2894       O  0.74345054  0.80347622  0.82026225    -0.86300
O2895       O  0.77089969  0.74784860  0.77707223    -0.73000
O2896       O  0.78857538  0.77913102  0.81211796    -0.85100
Zr2897     Zr  0.74490504  0.73516358  0.86918580     2.26400
Zr2898     Zr  0.73435110  0.72858758  0.78376338     2.06300
Zr2899     Zr  0.77254917  0.79561006  0.85777799     2.10000
Zr2900     Zr  0.70811733  0.78257648  0.82778299     1.78800
O2901       O  0.81270062  0.80209085  0.87278620    -0.93900
O2902       O  0.66901967  0.76738287  0.82122420    -0.41800
O2903       O  0.73624148  0.77572883  0.86650777    -0.78400
O2904       O  0.71683382  0.74225592  0.83041087    -0.97100
O2905       O  0.76095085  0.71902082  0.82404929    -0.90400
O2906       O  0.78119165  0.75460551  0.86301545    -0.93200
C2907       C  0.70715945  0.81615968  0.76966310     1.00500
C2908       C  0.79063418  0.83101413  0.79785450     1.13500
C2909       C  0.74722157  0.75172371  0.71308081     1.04200
O2910       O  0.69483849  0.72582540  0.76438829    -0.95400
O2911       O  0.71750244  0.69548262  0.80963443    -0.91100
O2912       O  0.72548648  0.69868975  0.86021628    -0.84300
C2913       C  0.71675969  0.68831822  0.83734765     1.10900
O2914       O  0.82915323  0.74310196  0.78236622    -0.97400
Zr2915     Zr  0.79707934  0.73787082  0.81847364     1.88900
O2916       O  0.77153878  0.70711020  0.89030606    -0.74000
O2917       O  0.74850912  0.69438145  0.75703655    -0.53300
O2918       O  0.80540072  0.70265092  0.79002152    -0.97900
O2919       O  0.83425208  0.74775863  0.84110259    -0.55200
O2920       O  0.80259196  0.70677370  0.85837097    -0.74500
C2921       C  0.79121817  0.69886031  0.88194866     0.97800
O2922       O  0.71492115  0.72857120  0.90792983    -0.63300
O2923       O  0.75870636  0.82924695  0.88590940    -0.58100
O2924       O  0.75228925  0.75265242  0.91739538    -0.94800
O2925       O  0.76964841  0.78797771  0.91326248    -0.93200
O2926       O  0.69788360  0.82254950  0.84016332    -0.93600
O2927       O  0.68191677  0.78245962  0.87175344    -0.92400
C2928       C  0.76114364  0.77088706  0.92895363     1.16700
H2929       H  0.74049891  0.82000502  0.81933389     0.32600
H2930       H  0.70257821  0.73406863  0.83496980     0.43500
H2931       H  0.79127922  0.75166211  0.88016327     0.37000
H2932       H  0.77839377  0.74291441  0.75845203     0.33500
H2933       H  0.65983996  0.78067495  0.81308118     0.25300
H2934       H  0.75516533  0.68415563  0.77310014     0.31200
H2935       H  0.79696863  0.69017234  0.80113509     0.37100
H2936       H  0.68083025  0.82361341  0.83711615     0.31600
H2937       H  0.77297973  0.83805571  0.89043859     0.30400
H2938       H  0.81453290  0.79317351  0.89206741     0.32100
H2939       H  0.83396090  0.74051393  0.86167475     0.31100
H2940       H  0.69202489  0.77887480  0.88938647     0.35100
H2941       H  0.69997237  0.73029168  0.89701136     0.27800
H2942       H  0.75915182  0.81421588  0.71727477     0.32100
H2943       H  0.82162926  0.74739989  0.76286429     0.34900
H2944       H  0.75035059  0.83898662  0.87072130     0.27500
H2945       H  0.71595972  0.71187712  0.91349953     0.40400
H2946       H  0.69265302  0.73994525  0.75156997     0.30400
H2947       H  0.67048008  0.75661148  0.80391555     0.38100
H2948       H  0.83310764  0.76464174  0.84483158     0.29900
H2949       H  0.73423533  0.68635154  0.75050844     0.30000
H2950       H  0.78440568  0.80353775  0.72032135     0.30200
Zr2951     Zr  0.74117651  0.73588736  0.52457166     2.17500
O2952       O  0.71138773  0.72873992  0.98663716    -0.52100
O2953       O  0.76882338  0.70784100  0.50430738    -0.75300
O2954       O  0.75002169  0.75326046  0.97420770    -0.82100
O2955       O  0.72387722  0.69085616  0.58261044    -0.83800
O2956       O  0.77124382  0.78608198  0.97848299    -0.79500
O2957       O  0.72502016  0.69835786  0.53165171    -0.91100
O2958       O  0.79888446  0.72938611  0.51603510    -0.77100
O2959       O  0.77847820  0.75346687  0.52662525    -0.86600
O2960       O  0.76029921  0.71838271  0.56744698    -0.86300
O2961       O  0.73275636  0.77656941  0.52871078    -0.73000
O2962       O  0.71595143  0.74398487  0.56714741    -0.85100
Zr2963     Zr  0.76563563  0.78575839  0.61732656     2.26400
Zr2964     Zr  0.77059235  0.79377118  0.53110612     2.06300
Zr2965     Zr  0.73550463  0.72654812  0.60991543     2.10000
Zr2966     Zr  0.79696325  0.73644353  0.57008668     1.78800
O2967       O  0.69512708  0.72076955  0.62538043    -0.93900
O2968       O  0.83678644  0.72328298  0.55996271    -0.41800
O2969       O  0.77315747  0.74463192  0.61377415    -0.78400
O2970       O  0.79049775  0.77676823  0.57449883    -0.97100
O2971       O  0.74679312  0.80354327  0.57477567    -0.90400
O2972       O  0.72859058  0.76756208  0.61559899    -0.93200
C2973       C  0.79079311  0.71041513  0.50645379     1.00500
C2974       C  0.72158507  0.68486009  0.55447089     1.13500
C2975       C  0.76090337  0.77058517  0.96268128     1.04200
O2976       O  0.80583494  0.80104217  0.50137114    -0.95400
O2977       O  0.79722228  0.82071854  0.55377449    -0.91100
O2978       O  0.79475025  0.81487067  0.60509693    -0.84300
C2979       C  0.80373265  0.82435134  0.58113630     1.10900
O2980       O  0.67513711  0.78106549  0.54253703    -0.97400
Zr2981     Zr  0.70985654  0.78518759  0.57342494     1.88900
O2982       O  0.74192294  0.81776292  0.63671234    -0.74000
O2983       O  0.75307230  0.83050396  0.51479648    -0.53300
O2984       O  0.70050583  0.82102945  0.54597750    -0.97900
O2985       O  0.67416122  0.77548478  0.60120139    -0.55200
O2986       O  0.70673757  0.81337349  0.61463284    -0.74500
C2987       C  0.72030852  0.82304123  0.63382741     0.97800
O2988       O  0.78934839  0.79259172  0.66202861    -0.63300
O2989       O  0.74935626  0.69408258  0.64130446    -0.58100
O2990       O  0.75860976  0.76846491  0.66687561    -0.94800
O2991       O  0.73861795  0.73459392  0.66466026    -0.93200
O2992       O  0.79889540  0.69793914  0.59377524    -0.93600
O2993       O  0.83026626  0.75152983  0.59743682    -0.92400
C2994       C  0.74824183  0.75111920  0.67941522     1.16700
H2995       H  0.76273690  0.70196567  0.56478275     0.32600
H2996       H  0.80619065  0.78233910  0.57595276     0.43500
H2997       H  0.71965580  0.77049518  0.63390778     0.37000
H2998       H  0.72460440  0.78215490  0.51086381     0.33500
H2999       H  0.83571734  0.70633695  0.55686939     0.25300
H3000       H  0.76258341  0.84259002  0.52445720     0.31200
H3001       H  0.68803354  0.82843548  0.55829722     0.37100
H3002       H  0.80821066  0.70011130  0.61237336     0.31600
H3003       H  0.74902776  0.68027700  0.62814091     0.30400
H3004       H  0.69476587  0.70468058  0.63358624     0.32100
H3005       H  0.67791431  0.77725451  0.62300493     0.31100
H3006       H  0.82556513  0.75053242  0.61916487     0.35100
H3007       H  0.80409302  0.78400803  0.65841450     0.27800
H3008       H  0.71903152  0.72174124  0.96863728     0.32100
H3009       H  0.67849015  0.76741998  0.52968324     0.34900
H3010       H  0.76615143  0.69711061  0.64414171     0.27500
H3011       H  0.79349249  0.80924628  0.66161338     0.40400
H3012       H  0.81680941  0.78863493  0.50798171     0.30400
H3013       H  0.84092726  0.72980352  0.53967008     0.38100
H3014       H  0.67240701  0.75853451  0.59864607     0.29900
H3015       H  0.75698232  0.83183502  0.49284146     0.30000
H3016       H  0.70615106  0.74436306  0.97974882     0.30200
Zr3017     Zr  0.54931584  0.31598315  0.63554810     2.17500
O3018       O  0.53789522  0.29263191  0.67981441    -0.52100
O3019       O  0.58395605  0.29536212  0.61493341    -0.75300
O3020       O  0.53392640  0.27871816  0.62152182    -0.82100
O3021       O  0.59591472  0.35418949  0.66693663    -0.83800
O3022       O  0.51289569  0.28668710  0.57903781    -0.79500
O3023       O  0.57916828  0.31874403  0.67321325    -0.91100
O3024       O  0.57408305  0.30065747  0.56682323    -0.77100
O3025       O  0.54162283  0.31583132  0.58235601    -0.86600
O3026       O  0.57694438  0.34177531  0.61263688    -0.86300
O3027       O  0.50951781  0.32991253  0.63165298    -0.73000
O3028       O  0.54140073  0.35315368  0.65876275    -0.85100
Zr3029     Zr  0.52287825  0.39207063  0.57550619     2.26400
Zr3030     Zr  0.50242257  0.32890570  0.57803984     2.06300
Zr3031     Zr  0.56984888  0.37810649  0.63562277     2.10000
Zr3032     Zr  0.56905489  0.34182857  0.55997571     1.78800
O3033       O  0.57007336  0.39634205  0.68532911    -0.93900
O3034       O  0.56317286  0.33067975  0.50723501    -0.41800
O3035       O  0.56275224  0.37924440  0.58158290    -0.78400
O3036       O  0.53019845  0.35460299  0.55365063    -0.97100
O3037       O  0.49442400  0.36718468  0.59796921    -0.90400
O3038       O  0.53111082  0.39248648  0.62867358    -0.93200
C3039       C  0.58826723  0.29259640  0.58645229     1.00500
C3040       C  0.59562383  0.33319126  0.67733397     1.13500
C3041       C  0.52326203  0.27234527  0.59757185     1.04200
O3042       O  0.47692778  0.30754859  0.54444419    -0.95400
O3043       O  0.48927962  0.34621133  0.53015157    -0.91100
O3044       O  0.50030841  0.38408948  0.52948764    -0.84300
C3045       C  0.49093636  0.36625557  0.51715445     1.10900
O3046       O  0.48469943  0.34665367  0.69275820    -0.97400
Zr3047     Zr  0.50234192  0.36890786  0.65112574     1.88900
O3048       O  0.50185859  0.42369530  0.60138535    -0.74000
O3049       O  0.46535422  0.32429143  0.60492448    -0.53300
O3050       O  0.46023226  0.36674130  0.64552368    -0.97900
O3051       O  0.51024324  0.38442467  0.70133943    -0.55200
O3052       O  0.49036694  0.41118886  0.64833996    -0.74500
C3053       C  0.49284279  0.42749947  0.62783077     0.97800
O3054       O  0.51496391  0.42048727  0.53507134    -0.63300
O3055       O  0.60982388  0.38912654  0.62364191    -0.58100
O3056       O  0.55710767  0.41608150  0.57401781    -0.94800
O3057       O  0.56979444  0.41888408  0.62208970    -0.93200
O3058       O  0.61140772  0.33838509  0.56156967    -0.93600
O3059       O  0.58754121  0.36610214  0.52106852    -0.92400
C3060       C  0.56466143  0.42793148  0.59627815     1.16700
H3061       H  0.59288938  0.33693700  0.61576442     0.32600
H3062       H  0.52981471  0.35479524  0.53177021     0.43500
H3063       H  0.53110273  0.40768449  0.63753641     0.37000
H3064       H  0.49950222  0.31899016  0.64217996     0.33500
H3065       H  0.57626123  0.31995612  0.50258755     0.25300
H3066       H  0.45388973  0.33277941  0.59213648     0.31200
H3067       H  0.45598464  0.38030060  0.63255558     0.37100
H3068       H  0.61677021  0.35365409  0.56873061     0.31600
H3069       H  0.61422438  0.39984044  0.64002560     0.30400
H3070       H  0.58016518  0.41008980  0.68258999     0.32100
H3071       H  0.51958160  0.39852389  0.69722834     0.31100
H3072       H  0.57560475  0.37801348  0.51592722     0.35100
H3073       H  0.50572871  0.43316499  0.54440553     0.27800
H3074       H  0.53873097  0.30331599  0.69725185     0.32100
H3075       H  0.49610353  0.33408340  0.69722824     0.34900
H3076       H  0.60894080  0.39894889  0.60500597     0.27500
H3077       H  0.53015403  0.42747685  0.52963223     0.40400
H3078       H  0.48749796  0.29958330  0.52992353     0.30400
H3079       H  0.54923567  0.32066108  0.50782043     0.38100
H3080       H  0.52141060  0.37329563  0.71069624     0.29900
H3081       H  0.46137938  0.30770259  0.60268677     0.30000
H3082       H  0.55091362  0.28147778  0.68294293     0.30200
Zr3083     Zr  0.57395904  0.13353855  0.53711126     2.17500
O3084       O  0.58637115  0.15685496  0.98155086    -0.52100
O3085       O  0.60908110  0.15161450  0.55921856    -0.75300
O3086       O  0.55128675  0.16767421  0.55329698    -0.82100
O3087       O  0.61277723  0.09638066  0.48588148    -0.83800
O3088       O  0.53433796  0.15760395  0.59794431    -0.79500
O3089       O  0.61729382  0.12211177  0.99663956    -0.91100
O3090       O  0.62280267  0.12816529  0.59719883    -0.77100
O3091       O  0.57478108  0.12499087  0.58996501    -0.86600
O3092       O  0.60126704  0.10231499  0.54466264    -0.86300
O3093       O  0.53416620  0.12212656  0.54706763    -0.73000
O3094       O  0.56011036  0.10097643  0.50746701    -0.85100
Zr3095     Zr  0.54891363  0.05168536  0.58143081     2.26400
Zr3096     Zr  0.53548566  0.11496962  0.60074132     2.06300
Zr3097     Zr  0.58824422  0.06992392  0.51500972     2.10000
Zr3098     Zr  0.60113268  0.09296554  0.59711630     1.78800
O3099       O  0.60959549  0.04719268  0.97566338    -0.93900
O3100       O  0.60286882  0.10162420  0.65120766    -0.41800
O3101       O  0.58834544  0.06071349  0.56833819    -0.78400
O3102       O  0.56236513  0.08339958  0.61100511    -0.97100
O3103       O  0.52139407  0.08219144  0.57331142    -0.90400
O3104       O  0.54930767  0.05876515  0.52797718    -0.93200
C3105       C  0.62324995  0.14681341  0.58119637     1.00500
C3106       C  0.63220863  0.10560666  0.99381265     1.13500
C3107       C  0.54001935  0.17293288  0.57774098     1.04200
O3108       O  0.53897969  0.13226200  0.65074356    -0.95400
O3109       O  0.52360660  0.08902241  0.64092436    -0.91100
O3110       O  0.51784060  0.05428827  0.61871589    -0.84300
C3111       C  0.51276282  0.06999653  0.63809144     1.10900
O3112       O  0.53456025  0.10279037  0.93233731    -0.97400
Zr3113     Zr  0.53825394  0.08116166  0.98011927     1.88900
O3114       O  0.51782206  0.02842023  0.56295306    -0.74000
O3115       O  0.49384901  0.12387259  0.60030589    -0.53300
O3116       O  0.49829329  0.08987803  0.96533884    -0.97900
O3117       O  0.55825179  0.06514711  0.93585185    -0.55200
O3118       O  0.52192336  0.04010456  0.97874546    -0.74500
C3119       C  0.50332909  0.02996581  0.54110036     0.97800
O3120       O  0.56011254  0.02441483  0.62171208    -0.63300
O3121       O  0.62678806  0.05288305  0.52283563    -0.58100
O3122       O  0.56374946  0.01810151  0.55551891    -0.94800
O3123       O  0.58390303  0.02770616  0.51225815    -0.93200
O3124       O  0.64124825  0.08241604  0.58411841    -0.93600
O3125       O  0.61543334  0.06000391  0.62692879    -0.92400
C3126       C  0.57440334  0.01290012  0.53061589     1.16700
H3127       H  0.61684659  0.10702308  0.53913633     0.32600
H3128       H  0.56277050  0.07890150  0.63225789     0.43500
H3129       H  0.54476189  0.04553078  0.51626823     0.37000
H3130       H  0.52347295  0.13473945  0.54260041     0.33500
H3131       H  0.61742816  0.11048841  0.65363072     0.25300
H3132       H  0.48855850  0.12103876  0.62153610     0.31200
H3133       H  0.48918173  0.07629907  0.97246485     0.37100
H3134       H  0.64792002  0.09598331  0.57316308     0.31600
H3135       H  0.62440182  0.03992454  0.53756252     0.30400
H3136       H  0.61865708  0.03315882  0.98158057     0.32100
H3137       H  0.54594727  0.05702592  0.92455813     0.31100
H3138       H  0.60265851  0.04858593  0.62619616     0.35100
H3139       H  0.55679496  0.03262733  0.64095782     0.27800
H3140       H  0.57091262  0.16434833  0.97892711     0.32100
H3141       H  0.54244967  0.11771203  0.93594899     0.34900
H3142       H  0.63065631  0.04520878  0.50337239     0.27500
H3143       H  0.54824220  0.01204862  0.62103468     0.40400
H3144       H  0.55431270  0.14002969  0.65023803     0.30400
H3145       H  0.59023733  0.11314940  0.65455078     0.38100
H3146       H  0.56815194  0.05246867  0.94419976     0.29900
H3147       H  0.49266289  0.14093120  0.59755558     0.30000
H3148       H  0.58834040  0.14731486  0.96309746     0.30200
Zr3149     Zr  0.93495771  0.15279381  0.86226503     2.17500
O3150       O  0.92799912  0.17692144  0.90675431    -0.52100
O3151       O  0.90948825  0.17719420  0.82711155    -0.75300
O3152       O  0.96048164  0.18611795  0.86424627    -0.82100
O3153       O  0.87843199  0.12468455  0.85719545    -0.83800
O3154       O  0.99344907  0.17541517  0.83909380    -0.79500
O3155       O  0.89949032  0.14521524  0.88899253    -0.91100
O3156       O  0.92380928  0.17173913  0.77974776    -0.77100
O3157       O  0.96129563  0.15344651  0.82049457    -0.86600
O3158       O  0.91499193  0.13258673  0.82346727    -0.86300
O3159       O  0.96899328  0.13129526  0.88089747    -0.73000
O3160       O  0.92974965  0.11398657  0.88413545    -0.85100
Zr3161     Zr  0.96795423  0.07359714  0.81492072     2.26400
Zr3162     Zr  0.99492837  0.13241619  0.83813061     2.06300
Zr3163     Zr  0.90810386  0.09510854  0.84573348     2.10000
Zr3164     Zr  0.94107458  0.13380786  0.78173910     1.78800
O3165       O  0.89194105  0.07750711  0.89186499    -0.93900
O3166       O  0.96856340  0.15679820  0.75139163    -0.41800
O3167       O  0.93365144  0.09608547  0.80186787    -0.78400
O3168       O  0.97402177  0.11318739  0.79813062    -0.97100
O3169       O  0.98935569  0.09231554  0.85391485    -0.90400
O3170       O  0.94226680  0.07269763  0.85834309    -0.93200
C3171       C  0.90909705  0.18104304  0.79780428     1.00500
C3172       C  0.88078587  0.14227811  0.87435892     1.13500
C3173       C  0.98006833  0.19082822  0.85146772     1.04200
O3174       O  0.03328766  0.14896581  0.82804466    -0.95400
O3175       O  0.02023161  0.11659228  0.79907937    -0.91100
O3176       O  0.00837322  0.07987165  0.79700613    -0.84300
C3177       C  0.01707950  0.09803760  0.78414911     1.10900
O3178       O  0.96767913  0.10591707  0.94787404    -0.97400
Zr3179     Zr  0.96393229  0.09039599  0.89680818     1.88900
O3180       O  0.97369836  0.03778570  0.84425278    -0.74000
O3181       O  0.01748010  0.12648489  0.88438893    -0.53300
O3182       O  0.00315789  0.08693595  0.91721301    -0.97900
O3183       O  0.93713976  0.07356931  0.93418992    -0.55200
O3184       O  0.97232329  0.04686690  0.89427085    -0.74500
C3185       C  0.97461264  0.03184627  0.87242955     0.97800
O3186       O  0.97927669  0.04002129  0.78419924    -0.63300
O3187       O  0.87132003  0.08529887  0.82202203    -0.58100
O3188       O  0.93573324  0.06087191  0.78434596    -0.94800
O3189       O  0.90952093  0.05774481  0.82169318    -0.93200
O3190       O  0.90570882  0.13018691  0.75191686    -0.93600
O3191       O  0.94881566  0.11649487  0.73238168    -0.92400
C3192       C  0.91490580  0.05679870  0.79365570     1.16700
H3193       H  0.90034436  0.13887815  0.81644986     0.32600
H3194       H  0.98066311  0.11430216  0.77819302     0.43500
H3195       H  0.93729163  0.05733685  0.86435356     0.37000
H3196       H  0.97550759  0.13984107  0.89754243     0.33500
H3197       H  0.96716393  0.17277118  0.75931100     0.25300
H3198       H  0.03273862  0.12029229  0.87739473     0.31200
H3199       H  0.00278881  0.07286594  0.93041425     0.37100
H3200       H  0.90877527  0.13900394  0.73280684     0.31600
H3201       H  0.85909818  0.08781676  0.83771381     0.30400
H3202       H  0.89124363  0.06072832  0.88732760     0.32100
H3203       H  0.94721379  0.06454282  0.94829963     0.31100
H3204       H  0.95196465  0.09995044  0.73722584     0.35100
H3205       H  0.97217002  0.04192599  0.76386754     0.27800
H3206       H  0.92634722  0.19310404  0.89910639     0.32100
H3207       H  0.95407075  0.11644368  0.95031344     0.34900
H3208       H  0.86869216  0.09766068  0.80651037     0.27500
H3209       H  0.99628870  0.04087233  0.78059106     0.40400
H3210       H  0.03616663  0.15990133  0.84478157     0.30400
H3211       H  0.98426019  0.15157281  0.75784505     0.38100
H3212       H  0.92866591  0.06157016  0.92289675     0.29900
H3213       H  0.02083786  0.14226954  0.89176622     0.30000
H3214       H  0.94277008  0.17651476  0.91824947     0.30200
Zr3215     Zr  0.93209918  0.32478968  0.81215007     2.17500
O3216       O  0.92973298  0.29680097  0.77108333    -0.52100
O3217       O  0.90890385  0.30502221  0.85372209    -0.75300
O3218       O  0.95766486  0.29189204  0.82132221    -0.82100
O3219       O  0.87575371  0.35446137  0.79505696    -0.83800
O3220       O  0.99111013  0.30617883  0.84075691    -0.79500
O3221       O  0.89492523  0.32017285  0.78928601    -0.91100
O3222       O  0.91108390  0.32600121  0.89685419    -0.77100
O3223       O  0.95459792  0.33294239  0.85561954    -0.86600
O3224       O  0.90908701  0.35215522  0.83938317    -0.86300
O3225       O  0.96771084  0.34108436  0.79097436    -0.73000
O3226       O  0.92751086  0.35752051  0.77738565    -0.85100
Zr3227     Zr  0.96127758  0.40960662  0.83141772     2.26400
Zr3228     Zr  0.98993470  0.34910733  0.83546228     2.06300
Zr3229     Zr  0.90411324  0.38443608  0.80520428     2.10000
Zr3230     Zr  0.93183058  0.36058654  0.88289723     1.78800
O3231       O  0.89575204  0.40120758  0.75525503    -0.93900
O3232       O  0.95724019  0.34405902  0.92188201    -0.41800
O3233       O  0.92566956  0.39316360  0.84992075    -0.78400
O3234       O  0.96730277  0.37671076  0.86512104    -0.97100
O3235       O  0.98505321  0.38313264  0.80356695    -0.90400
O3236       O  0.93908343  0.40223321  0.78718271    -0.93200
C3237       C  0.90345264  0.30874904  0.88206536     1.00500
C3238       C  0.87658471  0.33283912  0.78849031     1.13500
C3239       C  0.97786487  0.28925377  0.83308654     1.04200
O3240       O  0.02016016  0.33282202  0.86814139    -0.95400
O3241       O  0.01192690  0.37735073  0.86405261    -0.91100
O3242       O  0.00271281  0.40962641  0.83824254    -0.84300
C3243       C  0.01217940  0.39949976  0.86095252     1.10900
O3244       O  0.96478450  0.35140368  0.71514414    -0.97400
Zr3245     Zr  0.96296949  0.37623422  0.75957303     1.88900
O3246       O  0.97504779  0.43719487  0.79387904    -0.74000
O3247       O  0.02109758  0.34601730  0.79772665    -0.53300
O3248       O  0.00271367  0.37043767  0.74114042    -0.97900
O3249       O  0.93975864  0.38722485  0.71536050    -0.55200
O3250       O  0.97626127  0.41739438  0.74943994    -0.74500
C3251       C  0.97898678  0.43614018  0.76521432     0.97800
O3252       O  0.96658691  0.43556451  0.87414430    -0.63300
O3253       O  0.86437089  0.39894799  0.81232624    -0.58100
O3254       O  0.93166021  0.43926616  0.82752205    -0.94800
O3255       O  0.89818403  0.41952668  0.83387917    -0.93200
O3256       O  0.89603370  0.37138783  0.90948899    -0.93600
O3257       O  0.93447508  0.38909405  0.92316084    -0.92400
C3258       C  0.91077805  0.43753154  0.83743389     1.16700
H3259       H  0.89407304  0.34624953  0.84566115     0.32600
H3260       H  0.97467986  0.38151591  0.88363719     0.43500
H3261       H  0.93557217  0.41624695  0.77572882     0.37000
H3262       H  0.97572212  0.32937414  0.77918192     0.33500
H3263       H  0.94822321  0.34540206  0.94111413     0.25300
H3264       H  0.03116241  0.35952684  0.80161997     0.31200
H3265       H  0.01193249  0.38250781  0.75129765     0.37100
H3266       H  0.88732559  0.38104717  0.89455319     0.31600
H3267       H  0.85568051  0.39447645  0.79396173     0.30400
H3268       H  0.88304890  0.39155868  0.74724353     0.32100
H3269       H  0.93544579  0.40370613  0.71851415     0.31100
H3270       H  0.94215906  0.40264126  0.91344307     0.35100
H3271       H  0.97005596  0.45084170  0.86460848     0.27800
H3272       H  0.92744284  0.28144101  0.78101386     0.32100
H3273       H  0.95521119  0.33777565  0.72088723     0.34900
H3274       H  0.85774323  0.38927475  0.82903657     0.27500
H3275       H  0.95087906  0.43756005  0.88328953     0.40400
H3276       H  0.01193953  0.32864845  0.88734820     0.30400
H3277       H  0.95769448  0.32718381  0.91783932     0.38100
H3278       H  0.92497117  0.37864917  0.71793572     0.29900
H3279       H  0.03045900  0.33240864  0.80450096     0.30000
H3280       H  0.94558807  0.29611690  0.76203083     0.30200
Zr3281     Zr  0.72703261  0.21630085  0.01811243     2.17500
O3282       O  0.70762639  0.19096239  0.55246694    -0.52100
O3283       O  0.68556831  0.24559665  0.53931720    -0.75300
O3284       O  0.73439844  0.22845502  0.56559844    -0.82100
O3285       O  0.69656703  0.18556996  0.95396423    -0.83800
O3286       O  0.77186114  0.24076841  0.56086519    -0.79500
O3287       O  0.70572524  0.18120240  0.00382732    -0.91100
O3288       O  0.69636553  0.27370006  0.02339616    -0.77100
O3289       O  0.74609355  0.25296591  0.01912133    -0.86600
O3290       O  0.70677792  0.23932825  0.98089677    -0.86300
O3291       O  0.76810169  0.20993162  0.00881539    -0.73000
O3292       O  0.73314330  0.19843346  0.97073910    -0.85100
Zr3293     Zr  0.77154924  0.24957073  0.92277974     2.26400
Zr3294     Zr  0.78687575  0.24734919  0.00698394     2.06300
Zr3295     Zr  0.71348479  0.22092053  0.93303220     2.10000
Zr3296     Zr  0.72593084  0.27595339  0.98262247     1.78800
O3297       O  0.69466926  0.19415985  0.89866035    -0.93900
O3298       O  0.73981803  0.30584787  0.01667831    -0.41800
O3299       O  0.73145234  0.25817094  0.93358190    -0.78400
O3300       O  0.76652674  0.27052010  0.96955527    -0.97100
O3301       O  0.79131503  0.22688606  0.96037312    -0.90400
O3302       O  0.75357853  0.21272213  0.92235515    -0.93200
C3303       C  0.68645737  0.25744928  0.03911216     1.00500
C3304       C  0.69643130  0.17391088  0.97912056     1.13500
C3305       C  0.75393059  0.23473943  0.57691396     1.04200
O3306       O  0.79760298  0.28437499  0.02877530    -0.95400
O3307       O  0.82083709  0.26117874  0.97443487    -0.91100
O3308       O  0.80591618  0.27198341  0.92874272    -0.84300
C3309       C  0.82299965  0.26975326  0.94694664     1.10900
O3310       O  0.76766989  0.15543353  0.99249086    -0.97400
Zr3311     Zr  0.77252573  0.19037877  0.96123127     1.88900
O3312       O  0.80281866  0.22598960  0.90060237    -0.74000
O3313       O  0.82119272  0.22710651  0.02667055    -0.53300
O3314       O  0.80992095  0.17563284  0.97912279    -0.97900
O3315       O  0.75701788  0.15780009  0.93310205    -0.55200
O3316       O  0.79746977  0.18896254  0.91779686    -0.74500
C3317       C  0.80787311  0.20421477  0.90154150     0.97800
O3318       O  0.77254867  0.28268529  0.88762087    -0.63300
O3319       O  0.67652976  0.24215531  0.93063158    -0.58100
O3320       O  0.75493132  0.24333697  0.87320055    -0.94800
O3321       O  0.71834416  0.22902657  0.87841872    -0.93200
O3322       O  0.69188552  0.29336673  0.95837528    -0.93600
O3323       O  0.72917321  0.31438277  0.95920642    -0.92400
C3324       C  0.73566325  0.23616304  0.86223289     1.16700
H3325       H  0.69021785  0.24039712  0.98458476     0.32600
H3326       H  0.77379862  0.28555364  0.96777752     0.43500
H3327       H  0.75538255  0.20507912  0.90302961     0.37000
H3328       H  0.76123859  0.20105687  0.52415704     0.33500
H3329       H  0.72668306  0.30883932  0.03089608     0.25300
H3330       H  0.81839868  0.23526335  0.54070512     0.31200
H3331       H  0.81668898  0.18869226  0.99038543     0.37100
H3332       H  0.67844628  0.28468308  0.96685379     0.31600
H3333       H  0.67178969  0.24134539  0.90905431     0.30400
H3334       H  0.67797982  0.19866436  0.89884252     0.32100
H3335       H  0.75950805  0.16186322  0.91134494     0.31100
H3336       H  0.74340280  0.31354785  0.94633795     0.35100
H3337       H  0.77354938  0.29655105  0.90063378     0.27800
H3338       H  0.70081171  0.19881046  0.57041397     0.32100
H3339       H  0.76329848  0.16105140  0.01298412     0.34900
H3340       H  0.66523937  0.23216783  0.94172104     0.27500
H3341       H  0.78783756  0.28168967  0.87705094     0.40400
H3342       H  0.80277228  0.27883740  0.54102166     0.30400
H3343       H  0.75181593  0.29808649  0.02936681     0.38100
H3344       H  0.73991453  0.15886810  0.93606391     0.29900
H3345       H  0.80395918  0.21227669  0.53976442     0.30000
H3346       H  0.72305187  0.18515086  0.55921233     0.30200
Zr3347     Zr  0.71736768  0.24654176  0.67274767     2.17500
O3348       O  0.70805607  0.27967047  0.63967866    -0.52100
O3349       O  0.69149162  0.21949911  0.64867030    -0.75300
O3350       O  0.73448383  0.24140195  0.62277314    -0.82100
O3351       O  0.67586806  0.26646207  0.73685863    -0.83800
O3352       O  0.77296520  0.23149769  0.62600307    -0.79500
O3353       O  0.68246965  0.26846216  0.68569754    -0.91100
O3354       O  0.70365771  0.18412394  0.66584752    -0.77100
O3355       O  0.74363831  0.21436033  0.67189148    -0.86600
O3356       O  0.70310347  0.22121095  0.71201062    -0.86300
O3357       O  0.75586786  0.26145195  0.67990957    -0.73000
O3358       O  0.71845478  0.26763054  0.71900152    -0.85100
Zr3359     Zr  0.76924442  0.22589374  0.76560219     2.26400
Zr3360     Zr  0.78224398  0.22849172  0.68121537     2.06300
Zr3361     Zr  0.70593605  0.24173568  0.75914601     2.10000
Zr3362     Zr  0.72927885  0.18901819  0.71024579     1.78800
O3363       O  0.68252204  0.26682211  0.79187286    -0.93900
O3364       O  0.75118419  0.16010394  0.68155721    -0.41800
O3365       O  0.73174264  0.20897280  0.75811787    -0.78400
O3366       O  0.76801021  0.20276517  0.72053159    -0.97100
O3367       O  0.78257955  0.25111237  0.72607654    -0.90400
O3368       O  0.74330061  0.25825794  0.76674567    -0.93200
C3369       C  0.69120885  0.19724944  0.64817457     1.00500
C3370       C  0.67110439  0.27399754  0.70996545     1.13500
C3371       C  0.75423506  0.23607212  0.61071535     1.04200
O3372       O  0.80049122  0.19444578  0.65850660    -0.95400
O3373       O  0.81904408  0.22084573  0.71188194    -0.91100
O3374       O  0.80876492  0.21407257  0.76130096    -0.84300
C3375       C  0.82405383  0.21573448  0.74019329     1.10900
O3376       O  0.74875259  0.31520544  0.69083772    -0.97400
Zr3377     Zr  0.75602353  0.28305833  0.72613467     1.88900
O3378       O  0.79670987  0.25613491  0.77811318    -0.74000
O3379       O  0.80924271  0.25495471  0.65589465    -0.53300
O3380       O  0.79106169  0.30413799  0.71134793    -0.97900
O3381       O  0.73211375  0.31332480  0.74931073    -0.55200
O3382       O  0.77686788  0.28968004  0.77200947    -0.74500
C3383       C  0.79503159  0.27829447  0.77943185     0.97800
O3384       O  0.78065162  0.19363568  0.79909579    -0.63300
O3385       O  0.67726128  0.21145350  0.76867560    -0.58100
O3386       O  0.75493526  0.23150430  0.81629210    -0.94800
O3387       O  0.71577971  0.23752203  0.81395927    -0.93200
O3388       O  0.69594830  0.16821463  0.73138369    -0.93600
O3389       O  0.73867525  0.15424345  0.73993874    -0.92400
C3390       C  0.73500856  0.23486747  0.82875858     1.16700
H3391       H  0.68720496  0.21665789  0.70843024     0.32600
H3392       H  0.77846350  0.18962511  0.72279003     0.43500
H3393       H  0.74337775  0.26659562  0.78566432     0.37000
H3394       H  0.75999132  0.27159500  0.66304370     0.33500
H3395       H  0.73949466  0.14842394  0.67586768     0.25300
H3396       H  0.81193130  0.26729931  0.67088433     0.31200
H3397       H  0.80394821  0.29272846  0.71354621     0.37100
H3398       H  0.69064750  0.15815758  0.71474195     0.31600
H3399       H  0.68594219  0.19912639  0.77981514     0.30400
H3400       H  0.67099137  0.25652841  0.80195486     0.32100
H3401       H  0.74327714  0.32310622  0.76032702     0.31100
H3402       H  0.75068013  0.15932024  0.75441561     0.35100
H3403       H  0.76617818  0.18876767  0.80973198     0.27800
H3404       H  0.70073154  0.27301605  0.62147526     0.32100
H3405       H  0.73263903  0.31278157  0.68372849     0.34900
H3406       H  0.66639665  0.21793426  0.78405313     0.27500
H3407       H  0.78423805  0.18060493  0.78527240     0.40400
H3408       H  0.80041081  0.18243197  0.67483854     0.30400
H3409       H  0.75535428  0.16801567  0.66213345     0.38100
H3410       H  0.72316354  0.30522928  0.76558781     0.29900
H3411       H  0.82417037  0.24623679  0.65496032     0.30000
H3412       H  0.72327091  0.28562679  0.63234149     0.30200
Zr3413     Zr  0.39090571  0.04226036  0.67899165     2.17500
O3414       O  0.42014900  0.04496217  0.63871078    -0.52100
O3415       O  0.41434133  0.01375909  0.70543492    -0.75300
O3416       O  0.42078175  0.06308721  0.70524689    -0.82100
O3417       O  0.34614924  0.00309560  0.64694902    -0.83800
O3418       O  0.41450550  0.10074604  0.69666320    -0.79500
O3419       O  0.38438376  0.01226851  0.64159132    -0.91100
O3420       O  0.41158302  0.02624133  0.75358071    -0.77100
O3421       O  0.39121847  0.06203769  0.72606512    -0.86600
O3422       O  0.36674768  0.01905183  0.71117018    -0.86300
O3423       O  0.37807634  0.08161635  0.66882814    -0.73000
O3424       O  0.35339498  0.04290224  0.65636380    -0.85100
Zr3425     Zr  0.31392471  0.07848816  0.72597263     2.26400
Zr3426     Zr  0.37560364  0.10029066  0.71813933     2.06300
Zr3427     Zr  0.32843797  0.02173555  0.69019102     2.10000
Zr3428     Zr  0.36897329  0.03847175  0.75853986     1.78800
O3429       O  0.30832820  0.99089623  0.66367890    -0.93900
O3430       O  0.38746222  0.05736707  0.80122049    -0.41800
O3431       O  0.32940145  0.04032929  0.73829684    -0.78400
O3432       O  0.35145693  0.07707095  0.75155841    -0.97100
O3433       O  0.33924319  0.09986581  0.69322245    -0.90400
O3434       O  0.31453082  0.05996452  0.67787337    -0.93200
C3435       C  0.42351970  0.01686340  0.73150259     1.00500
C3436       C  0.36609512  0.00114546  0.63384552     1.13500
C3437       C  0.42788333  0.08301473  0.69713870     1.04200
O3438       O  0.38940843  0.10895615  0.76896807    -0.95400
O3439       O  0.34634566  0.13153955  0.72032496    -0.91100
O3440       O  0.31861942  0.11566474  0.74983930    -0.84300
C3441       C  0.32716878  0.13312681  0.73548876     1.10900
O3442       O  0.35888201  0.07497307  0.59641765    -0.97400
Zr3443     Zr  0.34048561  0.08123371  0.64581834     1.88900
O3444       O  0.29281612  0.10892301  0.69664322    -0.74000
O3445       O  0.39127363  0.13930117  0.71126111    -0.53300
O3446       O  0.35571642  0.11600197  0.62080508    -0.97900
O3447       O  0.31190124  0.06839505  0.60902038    -0.55200
O3448       O  0.31170296  0.11126488  0.65100017    -0.74500
C3449       C  0.29684474  0.11866150  0.67050356     0.97800
O3450       O  0.28957477  0.07696038  0.77166383    -0.63300
O3451       O  0.32813525  0.99054840  0.72824043    -0.58100
O3452       O  0.27714828  0.05842392  0.71814998    -0.94800
O3453       O  0.28615453  0.02520052  0.69336764    -0.93200
O3454       O  0.36610899  0.99762281  0.77302867    -0.93600
O3455       O  0.35035612  0.03109479  0.80772677    -0.92400
C3456       C  0.27139315  0.03980245  0.70425769     1.16700
H3457       H  0.37209156  0.00311502  0.71241171     0.32600
H3458       H  0.34996060  0.08439180  0.77115980     0.43500
H3459       H  0.29961265  0.06041875  0.66794783     0.37000
H3460       H  0.38878886  0.08938135  0.65507518     0.33500
H3461       H  0.39583894  0.04468737  0.81209197     0.25300
H3462       H  0.40652824  0.13937921  0.72162245     0.31200
H3463       H  0.35591147  0.12783407  0.63695986     0.37100
H3464       H  0.38166827  0.99350993  0.78115197     0.31600
H3465       H  0.31147051  0.98678547  0.73135414     0.30400
H3466       H  0.29868566  0.98275614  0.67920292     0.32100
H3467       H  0.29698712  0.07575145  0.61530059     0.31100
H3468       H  0.33858957  0.04367230  0.80972919     0.35100
H3469       H  0.30072014  0.07745101  0.78872426     0.27800
H3470       H  0.42597613  0.02893142  0.63556970     0.32100
H3471       H  0.37063667  0.06260790  0.60019496     0.34900
H3472       H  0.33480348  0.97692520  0.71762323     0.27500
H3473       H  0.28136456  0.09214692  0.77215485     0.40400
H3474       H  0.40661447  0.10851593  0.76700052     0.30400
H3475       H  0.40002952  0.06674398  0.79175969     0.38100
H3476       H  0.30981865  0.05163671  0.61351254     0.29900
H3477       H  0.39496793  0.14090023  0.68925940     0.30000
H3478       H  0.41134746  0.04908408  0.62010831     0.30200
Zr3479     Zr  0.05198602  0.04850335  0.67659975     2.17500
O3480       O  0.01598964  0.04111930  0.70493418    -0.52100
O3481       O  0.03282532  0.01845854  0.64859776    -0.75300
O3482       O  0.02389432  0.07580713  0.65367922    -0.82100
O3483       O  0.09245219  0.01180859  0.72763376    -0.83800
O3484       O  0.03503069  0.11202247  0.64503379    -0.79500
O3485       O  0.05750232  0.03050093  0.72662223    -0.91100
O3486       O  0.04298155  0.02865418  0.60077964    -0.77100
O3487       O  0.05861446  0.06486695  0.62724986    -0.86600
O3488       O  0.07950137  0.02209882  0.65430764    -0.86300
O3489       O  0.06681609  0.08707817  0.68364238    -0.73000
O3490       O  0.08679112  0.04974882  0.70507062    -0.85100
Zr3491     Zr  0.13615074  0.07852770  0.64473889     2.26400
Zr3492     Zr  0.07522156  0.10262754  0.63325685     2.06300
Zr3493     Zr  0.11487030  0.02426582  0.68329014     2.10000
Zr3494     Zr  0.08525670  0.03860634  0.60487101     1.78800
O3495       O  0.12797924  0.99192444  0.71536999    -0.93900
O3496       O  0.07369987  0.05514948  0.55583607    -0.41800
O3497       O  0.12127028  0.04031391  0.63389142    -0.78400
O3498       O  0.10287865  0.07637306  0.61101281    -0.97100
O3499       O  0.10806438  0.10389859  0.66653866    -0.90400
O3500       O  0.12883212  0.06245525  0.69363714    -0.93200
C3501       C  0.02809336  0.02047083  0.62036415     1.00500
C3502       C  0.07261597  0.01709360  0.73952067     1.13500
C3503       C  0.02184669  0.09752792  0.65888105     1.04200
O3504       O  0.05965967  0.10813750  0.58223892    -0.95400
O3505       O  0.10309002  0.12720248  0.60644486    -0.91100
O3506       O  0.13884338  0.11004261  0.60902154    -0.84300
C3507       C  0.12488447  0.12596624  0.59983415     1.10900
O3508       O  0.07123338  0.09084509  0.75606092    -0.97400
Zr3509     Zr  0.10011298  0.08718217  0.71540108     1.88900
O3510       O  0.15283417  0.10910663  0.67824370    -0.74000
O3511       O  0.06800297  0.14284540  0.64746569    -0.53300
O3512       O  0.09292740  0.12783491  0.72689988    -0.97900
O3513       O  0.11262267  0.06794219  0.76239538    -0.55200
O3514       O  0.13612211  0.10565448  0.72497047    -0.74500
C3515       C  0.15078906  0.11480060  0.70667977     0.97800
O3516       O  0.16913541  0.07301680  0.61006234    -0.63300
O3517       O  0.11825159  0.99199181  0.64810680    -0.58100
O3518       O  0.17027972  0.05662609  0.66003962    -0.94800
O3519       O  0.15741946  0.02608871  0.68870686    -0.93200
O3520       O  0.08705294  0.99702413  0.59556214    -0.93600
O3521       O  0.11204062  0.02929573  0.56337436    -0.92400
C3522       C  0.17367695  0.03896500  0.67750800     1.16700
H3523       H  0.07391569  0.00633271  0.65380157     0.32600
H3524       H  0.10721006  0.08190144  0.59090108     0.43500
H3525       H  0.14219034  0.06268443  0.70676322     0.37000
H3526       H  0.05591466  0.09647505  0.69468385     0.33500
H3527       H  0.07018645  0.04158954  0.54307366     0.25300
H3528       H  0.08319319  0.14855798  0.65464779     0.31200
H3529       H  0.09112309  0.13563500  0.70684547     0.37100
H3530       H  0.07549132  0.99450493  0.57935441     0.31600
H3531       H  0.13516129  0.99064494  0.64368226     0.30400
H3532       H  0.14122515  0.98469630  0.70431898     0.32100
H3533       H  0.12475364  0.07808597  0.77082795     0.31100
H3534       H  0.12428293  0.04127300  0.56445409     0.35100
H3535       H  0.16212965  0.07113011  0.58973593     0.27800
H3536       H  0.01864613  0.04569119  0.72623209     0.32100
H3537       H  0.07918971  0.09909112  0.77261265     0.34900
H3538       H  0.11449637  0.97790424  0.66028643     0.27500
H3539       H  0.17738136  0.08804791  0.60898571     0.40400
H3540       H  0.04266896  0.10573728  0.58452904     0.30400
H3541       H  0.05828809  0.06243093  0.55975808     0.38100
H3542       H  0.12119956  0.05386776  0.75578262     0.29900
H3543       H  0.06542225  0.15123987  0.62793888     0.30000
H3544       H  0.01447030  0.02400578  0.70586745     0.30200
Zr3545     Zr  0.42842238  0.43435196  0.95822181     2.17500
O3546       O  0.46057429  0.42363621  0.99183368    -0.52100
O3547       O  0.45928169  0.46154382  0.94495799    -0.75300
O3548       O  0.45263085  0.40558619  0.93414364    -0.82100
O3549       O  0.39073665  0.45183851  0.02684086    -0.83800
O3550       O  0.43654890  0.39059178  0.89171964    -0.79500
O3551       O  0.42455853  0.43346696  0.01399970    -0.91100
O3552       O  0.44680723  0.48229522  0.90420554    -0.77100
O3553       O  0.42297407  0.44133700  0.90518544    -0.86600
O3554       O  0.40859962  0.47107119  0.95659706    -0.86300
O3555       O  0.40729144  0.40140030  0.93943226    -0.73000
O3556       O  0.39217131  0.43029362  0.98340911    -0.85100
Zr3557     Zr  0.34323180  0.43969465  0.91366519     2.26400
Zr3558     Zr  0.39921293  0.41051629  0.88672642     2.06300
Zr3559     Zr  0.37112244  0.46598375  0.98146087     2.10000
Zr3560     Zr  0.40335416  0.47767038  0.90341257     1.78800
O3561       O  0.35784765  0.48097819  0.03036132    -0.93900
O3562       O  0.41542697  0.48295818  0.85046041    -0.41800
O3563       O  0.36551343  0.47313621  0.92861709    -0.78400
O3564       O  0.37870846  0.44681768  0.88430890    -0.97100
O3565       O  0.36466359  0.40420224  0.91605011    -0.90400
O3566       O  0.35040138  0.43277804  0.96615131    -0.93200
C3567       C  0.46323955  0.47532910  0.92232961     1.00500
C3568       C  0.40968049  0.44102368  0.03385811     1.13500
C3569       C  0.45283477  0.39200404  0.91129003     1.04200
O3570       O  0.41191945  0.42888832  0.83922379    -0.95400
O3571       O  0.36539933  0.39260391  0.86264290    -0.91100
O3572       O  0.33277663  0.41338302  0.87384807    -0.84300
C3573       C  0.34336106  0.39664429  0.86046399     1.10900
O3574       O  0.39044343  0.37256183  0.49043336    -0.97400
Zr3575     Zr  0.37224372  0.39723249  0.96815999     1.88900
O3576       O  0.31291349  0.41451992  0.93697684    -0.74000
O3577       O  0.40362351  0.37678165  0.85400953    -0.53300
O3578       O  0.36998047  0.35744561  0.95041022    -0.97900
O3579       O  0.34010039  0.40166047  0.50997184    -0.55200
O3580       O  0.33214806  0.38827959  0.96698452    -0.74500
C3581       C  0.31368043  0.39702940  0.95566730     0.97800
O3582       O  0.32223278  0.46128538  0.87434836    -0.63300
O3583       O  0.37997642  0.50731180  0.98032013    -0.58100
O3584       O  0.31294324  0.46261039  0.93754553    -0.94800
O3585       O  0.32812528  0.47245701  0.98305122    -0.93200
O3586       O  0.40969485  0.51592371  0.92490964    -0.93600
O3587       O  0.37971991  0.50589844  0.87536396    -0.92400
C3588       C  0.31085756  0.47056407  0.96454765     1.16700
H3589       H  0.41780533  0.48293051  0.96600367     0.32600
H3590       H  0.37461884  0.45031087  0.86344436     0.43500
H3591       H  0.33661426  0.43133465  0.97872967     0.37000
H3592       H  0.41532749  0.38673398  0.94203292     0.33500
H3593       H  0.42282257  0.49843662  0.84971095     0.25300
H3594       H  0.41764159  0.37955494  0.84121454     0.31200
H3595       H  0.35953814  0.34950444  0.45294975     0.37100
H3596       H  0.41261201  0.52634311  0.90719203     0.31600
H3597       H  0.36484237  0.51512950  0.98436010     0.30400
H3598       H  0.34760158  0.46877026  0.03904345     0.32100
H3599       H  0.35174374  0.40293072  0.52635580     0.31100
H3600       H  0.36663441  0.49676488  0.86734641     0.35100
H3601       H  0.32456780  0.47780549  0.87941161     0.27800
H3602       H  0.47502207  0.42726297  0.98029828     0.32100
H3603       H  0.39046625  0.37843872  0.51152040     0.34900
H3604       H  0.38917628  0.50985773  0.99893788     0.27500
H3605       H  0.33155326  0.45903469  0.85551509     0.40400
H3606       H  0.42764694  0.42228668  0.83534976     0.30400
H3607       H  0.42857030  0.47191576  0.84770185     0.38100
H3608       H  0.33312476  0.38615868  0.51324443     0.29900
H3609       H  0.40785091  0.36359543  0.86763492     0.30000
H3610       H  0.44657900  0.40095496  0.49104097     0.30200
Zr3611     Zr  0.09160305  0.49743075  0.96502792     2.17500
O3612       O  0.06571238  0.52287910  0.93519879    -0.52100
O3613       O  0.06260740  0.51007924  0.00226188    -0.75300
O3614       O  0.06020196  0.47558183  0.94288660    -0.82100
O3615       O  0.14747898  0.53366067  0.94225797    -0.83800
O3616       O  0.05996604  0.44501017  0.97493728    -0.79500
O3617       O  0.11035908  0.53477255  0.95526072    -0.91100
O3618       O  0.06418113  0.48781149  0.55280268    -0.77100
O3619       O  0.08756267  0.46761403  0.00252649    -0.86600
O3620       O  0.11770156  0.50805625  0.00469037    -0.86300
O3621       O  0.10270049  0.46145010  0.93980777    -0.73000
O3622       O  0.13067568  0.49513390  0.94511143    -0.85100
Zr3623     Zr  0.16398818  0.44246748  0.99598141     2.26400
Zr3624     Zr  0.10008787  0.43199573  0.97961072     2.06300
Zr3625     Zr  0.15726460  0.50693068  0.98377622     2.10000
Zr3626     Zr  0.10538128  0.47368233  0.54748104     1.78800
O3627       O  0.18012200  0.54195518  0.97495324    -0.93900
O3628       O  0.08523718  0.44550447  0.57999016    -0.41800
O3629       O  0.15215790  0.47752972  0.02194905    -0.78400
O3630       O  0.11796285  0.43760065  0.52495964    -0.97100
O3631       O  0.13781939  0.43279560  0.95707236    -0.90400
O3632       O  0.16762665  0.47175975  0.95775817    -0.93200
C3633       C  0.05611841  0.50183771  0.02817560     1.00500
C3634       C  0.12632677  0.53788466  0.93525351     1.13500
C3635       C  0.05180003  0.45610170  0.95192642     1.04200
O3636       O  0.07219673  0.40188843  0.51942515    -0.95400
O3637       O  0.11458347  0.39113669  0.48189141    -0.91100
O3638       O  0.14040488  0.40037344  0.51681907    -0.84300
C3639       C  0.13302154  0.38639562  0.49705591     1.10900
O3640       O  0.13836109  0.48405118  0.87160194    -0.97400
Zr3641     Zr  0.14132319  0.46120107  0.91856325     1.88900
O3642       O  0.17945606  0.41600043  0.95533509    -0.74000
O3643       O  0.08625791  0.40694746  0.93948306    -0.53300
O3644       O  0.11630974  0.44214515  0.88193688    -0.97900
O3645       O  0.17706258  0.47113274  0.89078615    -0.55200
O3646       O  0.15982445  0.42398573  0.91183177    -0.74500
C3647       C  0.17340845  0.41113635  0.92774634     0.97800
O3648       O  0.18063871  0.42088849  0.54210700    -0.63300
O3649       O  0.15632725  0.52738379  0.03204178    -0.58100
O3650       O  0.20350240  0.45793025  0.99642735    -0.94800
O3651       O  0.19917348  0.49661483  0.98671239    -0.93200
O3652       O  0.11133350  0.50853644  0.57722204    -0.93600
O3653       O  0.12459648  0.46787524  0.59626443    -0.92400
C3654       C  0.21186908  0.47826097  0.99105765     1.16700
H3655       H  0.11361660  0.52316191  0.01254631     0.32600
H3656       H  0.11647316  0.42627422  0.54126916     0.43500
H3657       H  0.18294754  0.47197541  0.94868999     0.37000
H3658       H  0.09264181  0.45774691  0.92314631     0.33500
H3659       H  0.07556063  0.45492741  0.59403311     0.25300
H3660       H  0.07383458  0.39744246  0.94900329     0.31200
H3661       H  0.12705890  0.43314143  0.86875931     0.37100
H3662       H  0.09548848  0.51470957  0.58139368     0.31600
H3663       H  0.17252680  0.52644834  0.03957577     0.30400
H3664       H  0.19185352  0.54206616  0.99134578     0.32100
H3665       H  0.18922020  0.46026085  0.89837422     0.31100
H3666       H  0.12995577  0.45148307  0.59623800     0.35100
H3667       H  0.18549760  0.43442670  0.55409299     0.27800
H3668       H  0.06805937  0.53876189  0.94288813     0.32100
H3669       H  0.14170418  0.47325753  0.85470462     0.34900
H3670       H  0.15390475  0.54395308  0.02653150     0.27500
H3671       H  0.16975450  0.41249422  0.55588648     0.40400
H3672       H  0.07105849  0.38695895  0.50862645     0.30400
H3673       H  0.07385952  0.43814237  0.56639284     0.38100
H3674       H  0.18162614  0.48658258  0.89824426     0.29900
H3675       H  0.07834923  0.41726479  0.92457530     0.30000
H3676       H  0.04972560  0.51901820  0.94210709     0.30200
Zr3677     Zr  0.21916158  0.24495357  0.74417477     2.17500
O3678       O  0.18550348  0.24343556  0.71079358    -0.52100
O3679       O  0.24518555  0.21417843  0.72576357    -0.75300
O3680       O  0.22901560  0.25958165  0.69511536    -0.82100
O3681       O  0.19396516  0.19853740  0.79471727    -0.83800
O3682       O  0.24641904  0.29461574  0.69905569    -0.79500
O3683       O  0.19837853  0.20974908  0.74539558    -0.91100
O3684       O  0.27747082  0.23253923  0.73703747    -0.77100
O3685       O  0.25677608  0.26167978  0.74773333    -0.86600
O3686       O  0.23702306  0.22429136  0.78527805    -0.86300
O3687       O  0.21125488  0.28546084  0.75193120    -0.73000
O3688       O  0.19342116  0.25174876  0.78665480    -0.85100
Zr3689     Zr  0.24390428  0.28759843  0.84137032     2.26400
Zr3690     Zr  0.24922145  0.30187279  0.75521060     2.06300
Zr3691     Zr  0.21121584  0.22997450  0.82718369     2.10000
Zr3692     Zr  0.27422577  0.24191141  0.78998235     1.78800
O3693       O  0.17195574  0.22321309  0.84658314    -0.93900
O3694       O  0.31576543  0.23780148  0.77847454    -0.41800
O3695       O  0.24941155  0.24676852  0.83341546    -0.78400
O3696       O  0.26844042  0.28227896  0.79724366    -0.97100
O3697       O  0.22630026  0.30875953  0.80050312    -0.90400
O3698       O  0.20613493  0.27095699  0.83755459    -0.93200
C3699       C  0.26739843  0.21443108  0.72789053     1.00500
C3700       C  0.19146174  0.19529996  0.76562817     1.13500
C3701       C  0.23827784  0.27763805  0.68330424     1.04200
O3702       O  0.28384668  0.31413857  0.72713926    -0.95400
O3703       O  0.27222167  0.33006588  0.78325760    -0.91100
O3704       O  0.26899504  0.32105034  0.83396831    -0.84300
C3705       C  0.27714635  0.33308823  0.81149608     1.10900
O3706       O  0.15296895  0.28917998  0.76843101    -0.97400
Zr3707     Zr  0.18861270  0.29271823  0.79762179     1.88900
O3708       O  0.22154931  0.31828130  0.86578655    -0.74000
O3709       O  0.22752530  0.33634694  0.73907855    -0.53300
O3710       O  0.17903648  0.32880966  0.77071598    -0.97900
O3711       O  0.15402116  0.28603756  0.82911110    -0.55200
O3712       O  0.18912624  0.32297572  0.83723893    -0.74500
C3713       C  0.20247393  0.32894049  0.85930474     0.97800
O3714       O  0.27618377  0.28746591  0.87729806    -0.63300
O3715       O  0.22794539  0.19386991  0.84708306    -0.58100
O3716       O  0.23455235  0.26677720  0.88837242    -0.94800
O3717       O  0.21510499  0.23278151  0.88299965    -0.93200
O3718       O  0.27865020  0.20167728  0.80702867    -0.93600
O3719       O  0.30460989  0.25354584  0.82493210    -0.92400
C3720       C  0.22480096  0.24835404  0.89936590     1.16700
H3721       H  0.23861921  0.20791119  0.78131331     0.32600
H3722       H  0.28370420  0.28874286  0.80017652     0.43500
H3723       H  0.19728605  0.27310238  0.85613036     0.37000
H3724       H  0.20328312  0.29183902  0.73439923     0.33500
H3725       H  0.31893247  0.22087188  0.77894896     0.25300
H3726       H  0.22892388  0.34724476  0.75620637     0.31200
H3727       H  0.17936976  0.32499302  0.74880400     0.37100
H3728       H  0.29318834  0.20141098  0.81900590     0.31600
H3729       H  0.21463291  0.18565147  0.85667780     0.30400
H3730       H  0.16170656  0.22677043  0.82907955     0.32100
H3731       H  0.15865349  0.28956516  0.85020463     0.31100
H3732       H  0.30159552  0.24430853  0.84371422     0.35100
H3733       H  0.27914247  0.27085508  0.88209833     0.27800
H3734       H  0.19070278  0.23413869  0.69316508     0.32100
H3735       H  0.15779589  0.28072228  0.74990191     0.34900
H3736       H  0.23187802  0.18459642  0.82888773     0.27500
H3737       H  0.29017761  0.29220276  0.86550532     0.40400
H3738       H  0.29656937  0.30434558  0.73558054     0.30400
H3739       H  0.31772043  0.24243651  0.75682017     0.38100
H3740       H  0.15190630  0.26900194  0.82913210     0.29900
H3741       H  0.23714580  0.34328246  0.72254579     0.30000
H3742       H  0.18347934  0.25942138  0.70258546     0.30200
Zr3743     Zr  0.24630815  0.28451194  0.49199203     2.17500
O3744       O  0.27550209  0.28544602  0.95414379    -0.52100
O3745       O  0.21973113  0.31452085  0.47348438    -0.75300
O3746       O  0.23656694  0.26338660  0.94493238    -0.82100
O3747       O  0.26838965  0.32864451  0.54495843    -0.83800
O3748       O  0.21614641  0.22995855  0.94905053    -0.79500
O3749       O  0.28019749  0.30427415  0.50968497    -0.91100
O3750       O  0.18877090  0.29388243  0.48492793    -0.77100
O3751       O  0.20825045  0.26879092  0.49704319    -0.86600
O3752       O  0.22786345  0.30455436  0.53373748    -0.86300
O3753       O  0.25279176  0.24350619  0.49990823    -0.73000
O3754       O  0.27062948  0.27686638  0.53551766    -0.85100
Zr3755     Zr  0.21924778  0.24003506  0.59079462     2.26400
Zr3756     Zr  0.21429642  0.22850604  0.50480770     2.06300
Zr3757     Zr  0.25218782  0.29705295  0.57718854     2.10000
Zr3758     Zr  0.19027444  0.28774080  0.53913029     1.78800
O3759       O  0.29162208  0.30242753  0.59563668    -0.93900
O3760       O  0.14950431  0.29579280  0.52745867    -0.41800
O3761       O  0.21369437  0.28106376  0.58324056    -0.78400
O3762       O  0.19517352  0.24736695  0.54707129    -0.97100
O3763       O  0.23707965  0.21996346  0.54939713    -0.90400
O3764       O  0.25725268  0.25597320  0.58631175    -0.93200
C3765       C  0.19761700  0.31257843  0.47482539     1.00500
C3766       C  0.27839371  0.32498467  0.51919975     1.13500
C3767       C  0.22563841  0.24657145  0.93323935     1.04200
O3768       O  0.17791096  0.22011153  0.47929673    -0.95400
O3769       O  0.19005814  0.20094716  0.53188272    -0.91100
O3770       O  0.19100043  0.20952317  0.58245303    -0.84300
C3771       C  0.18339623  0.19816092  0.55963337     1.10900
O3772       O  0.30786047  0.23734133  0.50987344    -0.97400
Zr3773     Zr  0.27495887  0.23583537  0.54524985     1.88900
O3774       O  0.24190655  0.20846377  0.61314779    -0.74000
O3775       O  0.23288319  0.19284328  0.48740472    -0.53300
O3776       O  0.28353863  0.19858885  0.52172141    -0.97900
O3777       O  0.31118315  0.24569422  0.57038384    -0.55200
O3778       O  0.27646922  0.20790203  0.58778765    -0.74500
C3779       C  0.26262774  0.20055784  0.60897986     0.97800
O3780       O  0.19084709  0.23838650  0.63236663    -0.63300
O3781       O  0.23676427  0.33246988  0.59975253    -0.58100
O3782       O  0.22840334  0.25925641  0.63818069    -0.94800
O3783       O  0.24835808  0.29303017  0.63299632    -0.93200
O3784       O  0.18624811  0.32782450  0.55554725    -0.93600
O3785       O  0.15848749  0.27415622  0.57187799    -0.92400
C3786       C  0.23855286  0.27709078  0.64933882     1.16700
H3787       H  0.22659597  0.32102210  0.52985612     0.32600
H3788       H  0.17958434  0.24151002  0.54951288     0.43500
H3789       H  0.26605020  0.25321518  0.60467751     0.37000
H3790       H  0.26101849  0.23624884  0.48322953     0.33500
H3791       H  0.14852114  0.31278984  0.52406946     0.25300
H3792       H  0.21980979  0.18303115  0.48084950     0.31200
H3793       H  0.27550040  0.18687447  0.53464666     0.37100
H3794       H  0.18559471  0.32669756  0.57805663     0.31600
H3795       H  0.25068260  0.34194614  0.60382791     0.30400
H3796       H  0.29125271  0.31792362  0.60514920     0.32100
H3797       H  0.32115224  0.23165872  0.56849109     0.31100
H3798       H  0.15730723  0.28577727  0.58825050     0.35100
H3799       H  0.17625813  0.24474525  0.62363517     0.27800
H3800       H  0.26734064  0.29281473  0.93670370     0.32100
H3801       H  0.30991094  0.25408977  0.50529118     0.34900
H3802       H  0.22884266  0.34076629  0.58283143     0.27500
H3803       H  0.18776414  0.22175135  0.63655974     0.40400
H3804       H  0.16688510  0.23209994  0.48684285     0.30400
H3805       H  0.14684286  0.28896410  0.50722339     0.38100
H3806       H  0.30719527  0.24641382  0.59232626     0.29900
H3807       H  0.24099978  0.19730261  0.46824165     0.30000
H3808       H  0.28050181  0.26992550  0.94699834     0.30200
C3809       C  0.20473059  0.38400845  0.90842432    -0.09900
C3810       C  0.18103978  0.38900276  0.91302497     0.06300
C3811       C  0.16453389  0.37406596  0.89978561    -0.03700
C3812       C  0.17178591  0.35448174  0.88329945    -0.08200
C3813       C  0.19549969  0.34947355  0.87839111     0.05400
C3814       C  0.21198753  0.36481756  0.89097710    -0.03200
Br3815     Br  0.24451989  0.36245086  0.88193349    -0.02900
H3816       H  0.21766323  0.39575284  0.91710424     0.09300
H3817       H  0.15870344  0.34330612  0.87377852     0.07300
Br3818     Br  0.13159057  0.37984635  0.90256864    -0.03300
C3819       C  0.17945508  0.37084317  0.98697425    -0.09900
C3820       C  0.14872033  0.36693117  0.48871462     0.06300
C3821       C  0.14175500  0.34690552  0.47322409    -0.03700
C3822       C  0.15854405  0.33002888  0.46555008    -0.08200
C3823       C  0.18226761  0.33306566  0.47251637     0.05400
C3824       C  0.19371758  0.35267832  0.97791981    -0.03200
Br3825     Br  0.22612716  0.35954314  0.97509559    -0.02900
H3826       H  0.18778248  0.38668899  0.99385776     0.09300
H3827       H  0.15286940  0.31384700  0.45585177     0.07300
Br3828     Br  0.10966171  0.34031403  0.46539810    -0.03300
C3829       C  0.30750312  0.38911252  0.83065585    -0.09900
C3830       C  0.32855292  0.38054240  0.84302165     0.06300
C3831       C  0.33297358  0.35632517  0.84226218    -0.03700
C3832       C  0.31635850  0.34150338  0.83017479    -0.08200
C3833       C  0.29510449  0.35008010  0.81909995     0.05400
C3834       C  0.29078630  0.37410631  0.81899474    -0.03200
Br3835     Br  0.26152570  0.38691958  0.80595873    -0.02900
H3836       H  0.30352059  0.40752580  0.83132511     0.09300
H3837       H  0.31954678  0.32291611  0.83084435     0.07300
Br3838     Br  0.35935289  0.34156587  0.86119084    -0.03300
C3839       C  0.27146343  0.48772184  0.95403215    -0.09900
C3840       C  0.28657919  0.47655921  0.97474069     0.06300
C3841       C  0.27697599  0.46786492  0.00237184    -0.03700
C3842       C  0.25280155  0.46949703  0.00805723    -0.08200
C3843       C  0.23767479  0.48008733  0.98690634     0.05400
C3844       C  0.24741474  0.48970394  0.95992766    -0.03200
Br3845     Br  0.22841633  0.50337438  0.92854781    -0.02900
H3846       H  0.27827541  0.49413312  0.93244435     0.09300
H3847       H  0.23913124  0.45349416  0.52655855     0.07300
Br3848     Br  0.29550567  0.45122740  0.03167278    -0.03300
C3849       C  0.29751779  0.33705043  0.47077350    -0.09900
C3850       C  0.28684020  0.34398249  0.49822795     0.06300
C3851       C  0.28292785  0.36807555  0.50245702    -0.03700
C3852       C  0.28978781  0.38417276  0.47953331    -0.08200
C3853       C  0.29284384  0.38471959  0.96590645     0.05400
C3854       C  0.28924188  0.36316315  0.95258607    -0.03200
Br3855     Br  0.29993915  0.35683740  0.91201645    -0.02900
H3856       H  0.30180156  0.31900314  0.46693908     0.09300
H3857       H  0.28821705  0.40257110  0.48384277     0.07300
Br3858     Br  0.26977362  0.38028129  0.53932286    -0.03300
C3859       C  0.17121502  0.13255547  0.75094329    -0.09900
C3860       C  0.16437435  0.13415162  0.72007646     0.06300
C3861       C  0.16570796  0.15595267  0.70549059    -0.03700
C3862       C  0.17359272  0.17524918  0.72137774    -0.08200
C3863       C  0.18064245  0.17389898  0.75226244     0.05400
C3864       C  0.17934411  0.15197191  0.76694486    -0.03200
Br3865     Br  0.18858080  0.14717087  0.80839492    -0.02900
H3866       H  0.16970989  0.11608451  0.76299274     0.09300
H3867       H  0.17396351  0.19168733  0.70912149     0.07300
Br3868     Br  0.15480926  0.16118941  0.66479612    -0.03300
C3869       C  0.13100528  0.16763021  0.59248932    -0.09900
C3870       C  0.13546564  0.14501351  0.58264122     0.06300
C3871       C  0.15345192  0.14085632  0.56130542    -0.03700
C3872       C  0.16829822  0.15882400  0.55283750    -0.08200
C3873       C  0.16551079  0.18081482  0.56559330     0.05400
C3874       C  0.14598006  0.18556603  0.58425961    -0.03200
Br3875     Br  0.13885752  0.21593674  0.59934808    -0.02900
H3876       H  0.11698458  0.17102010  0.60857766     0.09300
H3877       H  0.18275674  0.15530304  0.53748214     0.07300
Br3878     Br  0.15885284  0.11095089  0.54368717    -0.03300
C3879       C  0.30574022  0.19513482  0.71903534    -0.09900
C3880       C  0.28169820  0.19298218  0.72491323     0.06300
C3881       C  0.27308472  0.17103042  0.73380077    -0.03700
C3882       C  0.28846156  0.15246604  0.73846181    -0.08200
C3883       C  0.31257252  0.15458192  0.73310830     0.05400
C3884       C  0.32109904  0.17626207  0.72264289    -0.03200
Br3885     Br  0.35337066  0.18193711  0.71381783    -0.02900
H3886       H  0.31277613  0.21184142  0.71225271     0.09300
H3887       H  0.28120598  0.13596252  0.74566744     0.07300
Br3888     Br  0.24077753  0.16480451  0.74124587    -0.03300
C3889       C  0.21393687  0.02576709  0.66579179    -0.09900
C3890       C  0.19789157  0.03469793  0.68686172     0.06300
C3891       C  0.20599173  0.04353268  0.71451487    -0.03700
C3892       C  0.22990040  0.04398585  0.72035697    -0.08200
C3893       C  0.24621373  0.03577638  0.69894315     0.05400
C3894       C  0.23791733  0.02612576  0.67153124    -0.03200
Br3895     Br  0.25804482  0.01572991  0.63915715    -0.02900
H3896       H  0.20784668  0.01955278  0.64409911     0.09300
H3897       H  0.23580250  0.05157759  0.74134232     0.07300
Br3898     Br  0.18522638  0.05723250  0.74380957    -0.03300
C3899       C  0.25480412  0.16551257  0.64250739    -0.09900
C3900       C  0.27089248  0.18141896  0.62958175     0.06300
C3901       C  0.29476135  0.17820477  0.63607939    -0.03700
C3902       C  0.30217336  0.15839734  0.65184124    -0.08200
C3903       C  0.28644000  0.14141675  0.66206534     0.05400
C3904       C  0.26242829  0.14565666  0.65886406    -0.03200
Br3905     Br  0.23977885  0.12432890  0.67475638    -0.02900
H3906       H  0.23630286  0.16796671  0.63882824     0.09300
H3907       H  0.32071224  0.15576987  0.65523776     0.07300
Br3908     Br  0.31848202  0.20012292  0.62502735    -0.03300
C3909       C  0.02119875  0.43841896  0.88121173    -0.09900
C3910       C  0.02076624  0.41414894  0.88582886     0.06300
C3911       C  0.02519118  0.40518615  0.91540292    -0.03700
C3912       C  0.03152463  0.42019026  0.93843014    -0.08200
C3913       C  0.03512285  0.44389288  0.93246202     0.05400
C3914       C  0.02782052  0.45326733  0.90434870    -0.03200
Br3915     Br  0.02525073  0.48602468  0.89667946    -0.02900
H3916       H  0.01625654  0.44605787  0.85950928     0.09300
H3917       H  0.03572154  0.41275237  0.96051332     0.07300
Br3918     Br  0.02415460  0.37283954  0.92676331    -0.03300
C3919       C  0.88433412  0.29510322  0.93141450    -0.09900
C3920       C  0.88577886  0.29400773  0.89910199     0.06300
C3921       C  0.86761837  0.28253082  0.88417774    -0.03700
C3922       C  0.84850266  0.27390967  0.90081384    -0.08200
C3923       C  0.84610736  0.27654757  0.93270643     0.05400
C3924       C  0.86481577  0.28671092  0.94808857    -0.03200
Br3925     Br  0.86357278  0.29181532  0.99110778    -0.02900
H3926       H  0.89791216  0.30376209  0.94380391     0.09300
H3927       H  0.83475748  0.26571398  0.88817510     0.07300
Br3928     Br  0.86599282  0.28021948  0.84077826    -0.03300
C3929       C  0.83514090  0.32661937  0.80039368    -0.09900
C3930       C  0.85476058  0.32086864  0.78263170     0.06300
C3931       C  0.85435844  0.30101483  0.76422470    -0.03700
C3932       C  0.83532674  0.28631120  0.76579532    -0.08200
C3933       C  0.81602499  0.29168036  0.78420714     0.05400
C3934       C  0.81572451  0.31225275  0.80110551    -0.03200
Br3935     Br  0.78980677  0.32082626  0.82658961    -0.02900
H3936       H  0.83531110  0.34170270  0.81488402     0.09300
H3937       H  0.83508329  0.27123049  0.75127146     0.07300
Br3938     Br  0.87850880  0.29378950  0.73519100    -0.03300
C3939       C  0.99965288  0.08699356  0.73494710    -0.09900
C3940       C  0.01570033  0.10079466  0.75048173     0.06300
C3941       C  0.02499319  0.12030457  0.73460999    -0.03700
C3942       C  0.02145080  0.12273689  0.70332201    -0.08200
C3943       C  0.01040455  0.10507972  0.68727928     0.05400
C3944       C  0.99647707  0.08946086  0.70365723    -0.03200
Br3945     Br  0.97324613  0.07137035  0.68394817    -0.02900
H3946       H  0.98911030  0.07457817  0.74715171     0.09300
H3947       H  0.03080768  0.13627514  0.69112862     0.07300
Br3948     Br  0.04378496  0.14371213  0.75288969    -0.03300
C3949       C  0.82571476  0.17910682  0.86313251    -0.09900
C3950       C  0.82857663  0.19539007  0.88619297     0.06300
C3951       C  0.84943664  0.19562075  0.90251840    -0.03700
C3952       C  0.86600583  0.17830744  0.89793008    -0.08200
C3953       C  0.86253553  0.16058277  0.87670464     0.05400
C3954       C  0.84267914  0.16197792  0.85779231    -0.03200
Br3955     Br  0.83697487  0.14119635  0.82493299    -0.02900
H3956       H  0.80945648  0.17865848  0.85079522     0.09300
H3957       H  0.88128589  0.17834208  0.91218251     0.07300
Br3958     Br  0.85460883  0.21691130  0.93494182    -0.03300
C3959       C  0.99029359  0.22543140  0.81951837    -0.09900
C3960       C  0.98608802  0.21589791  0.84865091     0.06300
C3961       C  0.98339909  0.23119803  0.87337869    -0.03700
C3962       C  0.98325903  0.25538681  0.86836362    -0.08200
C3963       C  0.98537290  0.26481445  0.83881665     0.05400
C3964       C  0.98962966  0.24958621  0.81444462    -0.03200
Br3965     Br  0.99288093  0.26101282  0.77343231    -0.02900
H3966       H  0.99222306  0.21404650  0.80019170     0.09300
H3967       H  0.97980338  0.26678855  0.88733847     0.07300
Br3968     Br  0.97880743  0.21985246  0.91426220    -0.03300
C3969       C  0.88554313  0.19033640  0.75073126    -0.09900
C3970       C  0.88961737  0.19445903  0.78211100     0.06300
C3971       C  0.87385850  0.20939507  0.79706871    -0.03700
C3972       C  0.85372832  0.21760576  0.78194325    -0.08200
C3973       C  0.84854035  0.21147685  0.75150423     0.05400
C3974       C  0.86549395  0.19861475  0.73555993    -0.03200
Br3975     Br  0.86142894  0.19014639  0.69388134    -0.02900
H3976       H  0.89751739  0.17958430  0.73787699     0.09300
H3977       H  0.84152473  0.22831824  0.79459752     0.07300
Br3978     Br  0.87924342  0.21958726  0.83771439    -0.03300
C3979       C  0.45147185  0.08319145  0.65231729    -0.09900
C3980       C  0.45080420  0.08378551  0.68397364     0.06300
C3981       C  0.47035831  0.07705944  0.70109793    -0.03700
C3982       C  0.49072616  0.07039842  0.68599410    -0.08200
C3983       C  0.49092940  0.06889092  0.65420239     0.05400
C3984       C  0.47089581  0.07451979  0.63744963    -0.03200
Br3985     Br  0.46923577  0.07152997  0.59407534    -0.02900
H3986       H  0.43607446  0.08758755  0.63922701     0.09300
H3987       H  0.50641819  0.06679687  0.69883315     0.07300
Br3988     Br  0.46980675  0.07704761  0.74476101    -0.03300
C3989       C  0.66442808  0.15449378  0.59298684    -0.09900
C3990       C  0.64160561  0.16327237  0.59016451     0.06300
C3991       C  0.63605131  0.18468587  0.60367646    -0.03700
C3992       C  0.65276778  0.19606752  0.62125460    -0.08200
C3993       C  0.67501543  0.18616685  0.62631299     0.05400
C3994       C  0.68099494  0.16558267  0.61084142    -0.03200
Br3995     Br  0.71151848  0.15175541  0.61287372    -0.02900
H3996       H  0.66898417  0.13804273  0.58270131     0.09300
H3997       H  0.64784607  0.21202207  0.63251659     0.07300
Br3998     Br  0.60508738  0.19748921  0.60191782    -0.03300
C3999       C  0.67274366  0.11484592  0.00311525    -0.09900
C4000       C  0.65478415  0.11304389  0.98195187     0.06300
C4001       C  0.65513935  0.12725191  0.95577260    -0.03700
C4002       C  0.67002411  0.14616804  0.95437778    -0.08200
C4003       C  0.68516935  0.15080860  0.97856935     0.05400
C4004       C  0.68817849  0.13350829  0.00147893    -0.03200
Br4005     Br  0.69087411  0.14448341  0.51254127    -0.02900
H4006       H  0.64988192  0.11652916  0.50363246     0.09300
H4007       H  0.66833736  0.15815629  0.93530132     0.07300
Br4008     Br  0.63284469  0.12364005  0.92391679    -0.03300
C4009       C  0.49373679  0.38468181  0.91617490    -0.09900
C4010       C  0.47173279  0.37495175  0.91155555     0.06300
C4011       C  0.46598660  0.35517830  0.92893615    -0.03700
C4012       C  0.46364622  0.35594408  0.47545157    -0.08200
C4013       C  0.48308837  0.36844199  0.48522220     0.05400
C4014       C  0.49482507  0.38280463  0.46383877    -0.03200
Br4015     Br  0.52513146  0.39541857  0.47074302    -0.02900
H4016       H  0.50000385  0.39818092  0.90083524     0.09300
H4017       H  0.45551818  0.34322569  0.49042026     0.07300
Br4018     Br  0.43968458  0.33653025  0.91902044    -0.03300
C4019       C  0.65594058  0.30908453  0.68422627    -0.09900
C4020       C  0.65248930  0.29161724  0.70634629     0.06300
C4021       C  0.63146151  0.29136891  0.72325185    -0.03700
C4022       C  0.61371950  0.30724118  0.71585098    -0.08200
C4023       C  0.61655205  0.32342069  0.69186424     0.05400
C4024       C  0.63826419  0.32474586  0.67668374    -0.03200
Br4025     Br  0.64396753  0.34461352  0.64198131    -0.02900
H4026       H  0.67220388  0.30986949  0.67152130     0.09300
H4027       H  0.59698125  0.30578602  0.72732062     0.07300
Br4028     Br  0.62473137  0.26834767  0.75402746    -0.03300
C4029       C  0.51923219  0.23068181  0.61378503    -0.09900
C4030       C  0.52449199  0.24697231  0.59069388     0.06300
C4031       C  0.53436438  0.23871234  0.56334458    -0.03700
C4032       C  0.53868168  0.21479137  0.55952769    -0.08200
C4033       C  0.53358825  0.19823460  0.58268018     0.05400
C4034       C  0.52347687  0.20673133  0.61014589    -0.03200
Br4035     Br  0.51578428  0.18737726  0.64470823    -0.02900
H4036       H  0.51220145  0.23673988  0.63527527     0.09300
H4037       H  0.54670101  0.20926436  0.53839036     0.07300
Br4038     Br  0.54454629  0.25960114  0.53161091    -0.03300
C4039       C  0.65103559  0.26888187  0.57958671    -0.09900
C4040       C  0.65501568  0.27221103  0.54812111     0.06300
C4041       C  0.63606068  0.27848105  0.52966111    -0.03700
C4042       C  0.61454229  0.28383324  0.54280019    -0.08200
C4043       C  0.61072180  0.28255181  0.57455428     0.05400
C4044       C  0.62907365  0.27378779  0.59288404    -0.03200
Br4045     Br  0.62496980  0.26659173  0.63534783    -0.02900
H4046       H  0.68175024  0.29056597  0.08133708     0.09300
H4047       H  0.60068137  0.28919592  0.52764148     0.07300
Br4048     Br  0.63766043  0.27762334  0.48599042    -0.03300
C4049       C  0.98974044  0.49638810  0.03999117    -0.09900
C4050       C  0.98230689  0.51983365  0.04019103     0.06300
C4051       C  0.99465126  0.53438624  0.55701238    -0.03700
C4052       C  0.01845172  0.52809361  0.55282961    -0.08200
C4053       C  0.03120868  0.50737026  0.03761626     0.05400
C4054       C  0.01374470  0.49012933  0.03949066    -0.03200
Br4055     Br  0.02174792  0.45774070  0.03865801    -0.02900
H4056       H  0.97680323  0.48283341  0.03906374     0.09300
H4057       H  0.03151424  0.54155871  0.55273568     0.07300
Br4058     Br  0.98708923  0.56660409  0.56210214    -0.03300
C4059       C  0.91018011  0.49146436  0.88335737    -0.09900
C4060       C  0.90099578  0.48256389  0.91080643     0.06300
C4061       C  0.89177452  0.46005896  0.91199319    -0.03700
C4062       C  0.89232873  0.44660349  0.88598366    -0.08200
C4063       C  0.90283969  0.45493025  0.85903210     0.05400
C4064       C  0.91111421  0.47783881  0.85744738    -0.03200
Br4065     Br  0.92409236  0.49112548  0.82072398    -0.02900
H4066       H  0.91668814  0.50906460  0.88207130     0.09300
H4067       H  0.88656154  0.42875835  0.88779670     0.07300
Br4068     Br  0.88130819  0.44567447  0.94932295    -0.03300
C4069       C  0.79719938  0.64634063  0.93787857    -0.09900
C4070       C  0.82088752  0.64072339  0.93498758     0.06300
C4071       C  0.83486283  0.65537851  0.91605685    -0.03700
C4072       C  0.82494828  0.67384125  0.89922456    -0.08200
C4073       C  0.80106525  0.67901901  0.90097793     0.05400
C4074       C  0.78725890  0.66514476  0.92139412    -0.03200
Br4075     Br  0.75437390  0.66963500  0.92737194    -0.02900
H4076       H  0.78614207  0.63555423  0.95220819     0.09300
H4077       H  0.83619094  0.68442956  0.88488653     0.07300
Br4078     Br  0.86815196  0.65202469  0.91313984    -0.03300
C4079       C  0.84417784  0.67208408  0.50308500    -0.09900
C4080       C  0.83790591  0.65487750  0.52466714     0.06300
C4081       C  0.81523327  0.65574792  0.53783615    -0.03700
C4082       C  0.79941911  0.67253677  0.52815283    -0.08200
C4083       C  0.80592942  0.68994463  0.50751568     0.05400
C4084       C  0.82852168  0.68979066  0.49490846    -0.03200
Br4085     Br  0.83763244  0.71646997  0.95878867    -0.02900
H4086       H  0.86126632  0.67181035  0.49242918     0.09300
H4087       H  0.78227375  0.67293163  0.53864279     0.07300
Br4088     Br  0.80403707  0.63610729  0.57046092    -0.03300
C4089       C  0.51996375  0.50818550  0.89825895    -0.09900
C4090       C  0.53724833  0.49566736  0.91434393     0.06300
C4091       C  0.53015955  0.47556482  0.93038040    -0.03700
C4092       C  0.50644649  0.46921911  0.93184761    -0.08200
C4093       C  0.48865194  0.48251577  0.91743742     0.05400
C4094       C  0.49608682  0.50189796  0.89956772    -0.03200
Br4095     Br  0.47459087  0.52188655  0.87846651    -0.02900
H4096       H  0.52483405  0.52388469  0.88601950     0.09300
H4097       H  0.50195304  0.45381375  0.94496245     0.07300
Br4098     Br  0.55265042  0.45649115  0.95121002    -0.03300
C4099       C  0.59203647  0.48647544  0.58720348    -0.09900
C4100       C  0.57727535  0.49586753  0.56464158     0.06300
C4101       C  0.55508303  0.48603363  0.56077112    -0.03700
C4102       C  0.55081869  0.46422793  0.57318295    -0.08200
C4103       C  0.56753505  0.45282187  0.59107434     0.05400
C4104       C  0.58709884  0.46507086  0.60088630    -0.03200
Br4105     Br  0.60886749  0.45265611  0.62987284    -0.02900
H4106       H  0.60849605  0.49464845  0.59211164     0.09300
H4107       H  0.53456738  0.45582519  0.56813380     0.07300
Br4108     Br  0.53992210  0.49262859  0.01543306    -0.03300
C4109       C  0.70217519  0.62748947  0.86171825    -0.09900
C4110       C  0.67768205  0.62907184  0.86467896     0.06300
C4111       C  0.66633985  0.64984793  0.85491908    -0.03700
C4112       C  0.67956976  0.66861682  0.84468466    -0.08200
C4113       C  0.70383873  0.66722526  0.84382674     0.05400
C4114       C  0.71522963  0.64642851  0.85152225    -0.03200
Br4115     Br  0.74854032  0.64353001  0.84891352    -0.02900
H4116       H  0.71139156  0.61178383  0.86848449     0.09300
H4117       H  0.67090120  0.68480469  0.83857142     0.07300
Br4118     Br  0.63327672  0.65523418  0.85652058    -0.03300
C4119       C  0.74662549  0.51856656  0.97029232    -0.09900
C4120       C  0.73014222  0.52762633  0.99083131     0.06300
C4121       C  0.73816968  0.53817859  0.01754865    -0.03700
C4122       C  0.76221459  0.54064560  0.02243469    -0.08200
C4123       C  0.77871250  0.53265257  0.00105525     0.05400
C4124       C  0.77062901  0.52088253  0.97515145    -0.03200
Br4125     Br  0.79118081  0.51064279  0.94316751    -0.02900
H4126       H  0.74076792  0.51103323  0.94924110     0.09300
H4127       H  0.76174548  0.55776215  0.55156087     0.07300
Br4128     Br  0.71697236  0.55205141  0.04612618    -0.03300
C4129       C  0.68782454  0.62935098  0.54825813    -0.09900
C4130       C  0.70284807  0.62472288  0.99921198     0.06300
C4131       C  0.70478931  0.64628986  0.98436252    -0.03700
C4132       C  0.71063342  0.66586851  0.00095042    -0.08200
C4133       C  0.71508918  0.66092535  0.54625252     0.05400
C4134       C  0.69761003  0.64864354  0.56185092    -0.03200
Br4135     Br  0.68418433  0.65875352  0.59963861    -0.02900
H4136       H  0.67343546  0.62101125  0.56003998     0.09300
H4137       H  0.71141227  0.68225013  0.98871044     0.07300
Br4138     Br  0.69557980  0.65062959  0.94268262    -0.03300
C4139       C  0.96949217  0.99011647  0.60952454    -0.09900
C4140       C  0.95387864  0.00913365  0.60970971     0.06300
C4141       C  0.96346727  0.03169583  0.60969014    -0.03700
C4142       C  0.98780909  0.03482922  0.61004846    -0.08200
C4143       C  0.00336360  0.01584367  0.61159371     0.05400
C4144       C  0.99385796  0.99327858  0.61125966    -0.03200
Br4145     Br  0.01328416  0.96626044  0.61587361    -0.02900
H4146       H  0.96264924  0.97264529  0.61073632     0.09300
H4147       H  0.99456440  0.05230272  0.61130372     0.07300
Br4148     Br  0.94396928  0.05890567  0.61103071    -0.03300
C4149       C  0.85934524  0.04737238  0.75110653    -0.09900
C4150       C  0.86545993  0.05830983  0.72340866     0.06300
C4151       C  0.88425338  0.07359220  0.72225240    -0.03700
C4152       C  0.89981663  0.07332630  0.74612330    -0.08200
C4153       C  0.89637224  0.05845707  0.77135233     0.05400
C4154       C  0.87501269  0.04695296  0.77509543    -0.03200
Br4155     Br  0.86767413  0.02816340  0.81031571    -0.02900
H4156       H  0.84440747  0.03599264  0.75245003     0.09300
H4157       H  0.91529270  0.08377368  0.74409732     0.07300
Br4158     Br  0.89148750  0.09166494  0.68642031    -0.03300
C4159       C  0.79351206  0.89511382  0.76945137    -0.09900
C4160       C  0.80432268  0.89269009  0.74056692     0.06300
C4161       C  0.81091253  0.87009156  0.73175942    -0.03700
C4162       C  0.80742173  0.85106275  0.75159261    -0.08200
C4163       C  0.79633053  0.85319066  0.78035208     0.05400
C4164       C  0.78907134  0.87579483  0.78890619    -0.03200
Br4165     Br  0.77228251  0.88161819  0.82604898    -0.02900
H4166       H  0.78839522  0.91226966  0.77698886     0.09300
H4167       H  0.81339167  0.83420706  0.74398441     0.07300
Br4168     Br  0.82592023  0.86386250  0.69348755    -0.03300
C4169       C  0.85344952  0.85343269  0.61901626    -0.09900
C4170       C  0.85119169  0.87532901  0.60549136     0.06300
C4171       C  0.83888537  0.87810194  0.57805796    -0.03700
C4172       C  0.82480735  0.86022811  0.56829415    -0.08200
C4173       C  0.82342710  0.83971532  0.58556895     0.05400
C4174       C  0.83968476  0.83538810  0.60898154    -0.03200
Br4175     Br  0.84311819  0.80578965  0.62899081    -0.02900
H4176       H  0.86364380  0.85107624  0.63950298     0.09300
H4177       H  0.81333297  0.86324844  0.54915084     0.07300
Br4178     Br  0.83774395  0.90727914  0.55639479    -0.03300
C4179       C  0.48661436  0.99923432  0.75810100    -0.09900
C4180       C  0.49884581  0.99854135  0.72987623     0.06300
C4181       C  0.48593935  0.00514549  0.70359971    -0.03700
C4182       C  0.46223173  0.01121237  0.70566728    -0.08200
C4183       C  0.44956493  0.01099825  0.73335542     0.05400
C4184       C  0.46240052  0.00534546  0.76000221    -0.03200
Br4185     Br  0.44751611  0.00428517  0.79919399    -0.02900
H4186       H  0.49563678  0.99411935  0.77870773     0.09300
H4187       H  0.45355183  0.01620201  0.68474200     0.07300
Br4188     Br  0.49912481  0.00665229  0.66313729    -0.03300
C4189       C  0.59781031  0.96799587  0.56325276    -0.09900
C4190       C  0.57679545  0.96494136  0.57976207     0.06300
C4191       C  0.55576143  0.96571144  0.56336362    -0.03700
C4192       C  0.55601361  0.97574203  0.53406463    -0.08200
C4193       C  0.57611325  0.98782209  0.52458892     0.05400
C4194       C  0.59726028  0.97821306  0.53426867    -0.03200
Br4195     Br  0.62580708  0.98572832  0.51382558    -0.02900
H4196       H  0.61452791  0.96485177  0.57389410     0.09300
H4197       H  0.53950213  0.97985707  0.52351215     0.07300
Br4198     Br  0.52639430  0.95702951  0.58059108    -0.03300
C4199       C  0.67945828  0.87677368  0.76804242    -0.09900
C4200       C  0.65556859  0.87139980  0.77093921     0.06300
C4201       C  0.64921116  0.84783047  0.77235939    -0.03700
C4202       C  0.66630301  0.83055682  0.76995678    -0.08200
C4203       C  0.69019032  0.83581796  0.76696693     0.05400
C4204       C  0.69665236  0.85941862  0.76593249    -0.03200
Br4205     Br  0.72832610  0.86957782  0.76195072    -0.02900
H4206       H  0.68492797  0.89471229  0.76662169     0.09300
H4207       H  0.66065257  0.81267110  0.77107258     0.07300
Br4208     Br  0.61774734  0.83748100  0.77822383    -0.03300
C4209       C  0.73336434  0.97074931  0.64312218    -0.09900
C4210       C  0.74881242  0.98038480  0.66397916     0.06300
C4211       C  0.73967098  0.98961055  0.69134117    -0.03700
C4212       C  0.71567110  0.98865283  0.69752360    -0.08200
C4213       C  0.70023788  0.97890878  0.67673817     0.05400
C4214       C  0.70928799  0.97017200  0.64911849    -0.03200
Br4215     Br  0.68984253  0.95526460  0.62008793    -0.02900
H4216       H  0.74010983  0.96321843  0.62231766     0.09300
H4217       H  0.70910352  0.99481027  0.71920617     0.07300
Br4218     Br  0.75925328  0.00138033  0.72272274    -0.03300
C4219       C  0.70503778  0.87935629  0.67619304    -0.09900
C4220       C  0.68232192  0.87408245  0.68639893     0.06300
C4221       C  0.67451854  0.85096098  0.68336417    -0.03700
C4222       C  0.68795256  0.83461111  0.66782356    -0.08200
C4223       C  0.70948558  0.84036465  0.65478267     0.05400
C4224       C  0.71871997  0.86261586  0.66060627    -0.03200
Br4225     Br  0.74859551  0.87180974  0.64492553    -0.02900
H4226       H  0.71138049  0.89694399  0.67800621     0.09300
H4227       H  0.68089803  0.81742410  0.66456802     0.07300
Br4228     Br  0.64419480  0.84099760  0.69662227    -0.03300
C4229       C  0.01794467  0.48738754  0.74444114    -0.09900
C4230       C  0.00176723  0.50598703  0.74247054     0.06300
C4231       C  0.97785268  0.50027929  0.74295332    -0.03700
C4232       C  0.97069538  0.47692916  0.74685853    -0.08200
C4233       C  0.98692440  0.45857772  0.75066184     0.05400
C4234       C  0.01079846  0.46413831  0.74875786    -0.03200
Br4235     Br  0.03429966  0.44095672  0.75643352    -0.02900
H4236       H  0.03638178  0.49119657  0.74542815     0.09300
H4237       H  0.95227689  0.47334711  0.74948926     0.07300
Br4238     Br  0.95432164  0.52409696  0.74347164    -0.03300
C4239       C  0.98763533  0.57134017  0.89623267    -0.09900
C4240       C  0.97269619  0.57808814  0.87225678     0.06300
C4241       C  0.95410487  0.59345694  0.87814308    -0.03700
C4242       C  0.95076642  0.60161709  0.90752931    -0.08200
C4243       C  0.96448000  0.59317330  0.93174805     0.05400
C4244       C  0.98400344  0.57927337  0.92558185    -0.03200
Br4245     Br  0.00596703  0.57053026  0.95646763    -0.02900
H4246       H  0.00266496  0.56026436  0.89214039     0.09300
H4247       H  0.93594345  0.61292519  0.91180285     0.07300
Br4248     Br  0.93194054  0.60293728  0.84776887    -0.03300
C4249       C  0.10558797  0.51901243  0.89348334    -0.09900
C4250       C  0.12032314  0.53686711  0.90290004     0.06300
C4251       C  0.13025474  0.55172851  0.88087058    -0.03700
C4252       C  0.12236151  0.55090246  0.85088781    -0.08200
C4253       C  0.10488743  0.53517296  0.84274165     0.05400
C4254       C  0.09825911  0.51779758  0.86351525    -0.03200
Br4255     Br  0.07878756  0.49259151  0.85186052    -0.02900
H4256       H  0.09968080  0.50578886  0.90929615     0.09300
H4257       H  0.12791425  0.56433407  0.83501301     0.07300
Br4258     Br  0.15256532  0.57488168  0.89118978    -0.03300
C4259       C  0.14035642  0.68202612  0.87666010    -0.09900
C4260       C  0.13607681  0.70430253  0.88794315     0.06300
C4261       C  0.11464759  0.71530423  0.88083551    -0.03700
C4262       C  0.09767501  0.70355707  0.86375444    -0.08200
C4263       C  0.10219882  0.68116069  0.85249130     0.05400
C4264       C  0.12387043  0.67055750  0.85926590    -0.03200
Br4265     Br  0.13208751  0.64008098  0.84536485    -0.02900
H4266       H  0.15712968  0.67373520  0.88050874     0.09300
H4267       H  0.08092323  0.71176896  0.85964673     0.07300
Br4268     Br  0.10819146  0.74636134  0.89374120    -0.03300
C4269       C  0.14599537  0.65183751  0.76852300    -0.09900
C4270       C  0.12382785  0.66003250  0.76011568     0.06300
C4271       C  0.11997524  0.68446029  0.75830145    -0.03700
C4272       C  0.13887036  0.69942699  0.75958366    -0.08200
C4273       C  0.16141669  0.69053415  0.76255087     0.05400
C4274       C  0.16455863  0.66702005  0.77075008    -0.03200
Br4275     Br  0.19468265  0.65440366  0.78051448    -0.02900
H4276       H  0.14923096  0.63347854  0.77240957     0.09300
H4277       H  0.13620176  0.71770195  0.75428649     0.07300
Br4278     Br  0.09023106  0.69941651  0.75303581    -0.03300
C4279       C  0.96269622  0.96602928  0.86990046    -0.09900
C4280       C  0.98524551  0.95598303  0.87069606     0.06300
C4281       C  0.00381334  0.97126277  0.87715426    -0.03700
C4282       C  0.99999041  0.99559032  0.88052266    -0.08200
C4283       C  0.97756849  0.00575431  0.87841520     0.05400
C4284       C  0.95881553  0.99025440  0.87403660    -0.03200
Br4285     Br  0.92745160  0.00184299  0.87149215    -0.02900
H4286       H  0.94802121  0.95515112  0.86455652     0.09300
H4287       H  0.01489988  0.00679392  0.88297668     0.07300
Br4288     Br  0.03529140  0.96000214  0.87842054    -0.03300
C4289       C  0.07447799  0.97333774  0.80124252    -0.09900
C4290       C  0.05084745  0.96734642  0.80007176     0.06300
C4291       C  0.03441787  0.98446878  0.79091900    -0.03700
C4292       C  0.04230580  0.00382138  0.77499076    -0.08200
C4293       C  0.06611300  0.00619814  0.76863325     0.05400
C4294       C  0.08224961  0.99303691  0.78576303    -0.03200
Br4295     Br  0.11488829  0.99996703  0.78698133    -0.02900
H4296       H  0.08724744  0.96156301  0.81111006     0.09300
H4297       H  0.02957538  0.01516279  0.76428677     0.07300
Br4298     Br  0.00117197  0.98178701  0.79555841    -0.03300
C4299       C  0.94551965  0.91902483  0.70186218    -0.09900
C4300       C  0.93917283  0.94080890  0.71352899     0.06300
C4301       C  0.93609015  0.94290093  0.74538659    -0.03700
C4302       C  0.93801412  0.92323181  0.76415036    -0.08200
C4303       C  0.94396647  0.90133940  0.75239523     0.05400
C4304       C  0.94739346  0.89930301  0.72063852    -0.03200
Br4305     Br  0.95510834  0.87062733  0.70093170    -0.02900
H4306       H  0.94874549  0.91723408  0.67770205     0.09300
H4307       H  0.93600514  0.92533955  0.78852996     0.07300
Br4308     Br  0.93034980  0.97182617  0.76569139    -0.03300
C4309       C  0.13119443  0.81019733  0.81686781    -0.09900
C4310       C  0.12536033  0.83096157  0.83165617     0.06300
C4311       C  0.14178430  0.84147372  0.85037682    -0.03700
C4312       C  0.16252390  0.82968601  0.85681749    -0.08200
C4313       C  0.16717564  0.80740385  0.84494585     0.05400
C4314       C  0.15201656  0.79853152  0.82290134    -0.03200
Br4315     Br  0.15804276  0.77059906  0.80049249    -0.02900
H4316       H  0.11908665  0.80258766  0.80111064     0.09300
H4317       H  0.17415914  0.83734990  0.87308493     0.07300
Br4318     Br  0.13578638  0.87026535  0.87072546    -0.03300
C4319       C  0.99246479  0.74437112  0.77870807    -0.09900
C4320       C  0.99862859  0.75504646  0.80607698     0.06300
C4321       C  0.00294135  0.74065274  0.83180939    -0.03700
C4322       C  0.00195017  0.71633789  0.82958068    -0.08200
C4323       C  0.99743147  0.70566011  0.80173726     0.05400
C4324       C  0.99228180  0.71998098  0.77627191    -0.03200
Br4325     Br  0.98688580  0.70690316  0.73706740    -0.02900
H4326       H  0.98941421  0.75499088  0.75856116     0.09300
H4327       H  0.00662318  0.70569199  0.84916728     0.07300
Br4328     Br  0.01158343  0.75316707  0.87026854    -0.03300
C4329       C  0.09331676  0.77600255  0.71751989    -0.09900
C4330       C  0.09537697  0.79787802  0.73124947     0.06300
C4331       C  0.11605795  0.81050414  0.72599884    -0.03700
C4332       C  0.13402261  0.80140513  0.70790148    -0.08200
C4333       C  0.13234864  0.77948219  0.69462580     0.05400
C4334       C  0.11172411  0.76670790  0.69959235    -0.03200
Br4335     Br  0.10867101  0.73618786  0.68331054    -0.02900
H4336       H  0.07744686  0.76618041  0.72066858     0.09300
H4337       H  0.15009569  0.81105427  0.70554567     0.07300
Br4338     Br  0.12143097  0.84001385  0.74431510    -0.03300
C4339       C  0.49383162  0.85871818  0.68678114    -0.09900
C4340       C  0.47496649  0.87315148  0.67833780     0.06300
C4341       C  0.46956645  0.89243628  0.69667859    -0.03700
C4342       C  0.48630842  0.90046598  0.71665159    -0.08200
C4343       C  0.50770126  0.88877505  0.71945816     0.05400
C4344       C  0.51006094  0.86627583  0.70779159    -0.03200
Br4345     Br  0.53717999  0.84728409  0.71486687    -0.02900
H4346       H  0.49746671  0.84274243  0.67482676     0.09300
H4347       H  0.48375872  0.91722945  0.72717962     0.07300
Br4348     Br  0.44038356  0.90882221  0.69523823    -0.03300
C4349       C  0.35303217  0.96446686  0.61240800    -0.09900
C4350       C  0.36768168  0.98385831  0.60964226     0.06300
C4351       C  0.38420088  0.98485236  0.58563651    -0.03700
C4352       C  0.38752928  0.96547121  0.56737334    -0.08200
C4353       C  0.37484055  0.94523124  0.57309449     0.05400
C4354       C  0.35672351  0.94509533  0.59461693    -0.03200
Br4355     Br  0.33863694  0.91782269  0.60318769    -0.02900
H4356       H  0.33991417  0.96341562  0.63024819     0.09300
H4357       H  0.40157639  0.96543653  0.55068937     0.07300
Br4358     Br  0.40323699  0.01135723  0.57697189    -0.03300
C4359       C  0.48347573  0.96932713  0.51678020    -0.09900
C4360       C  0.47371168  0.96047547  0.54432804     0.06300
C4361       C  0.47050269  0.97684128  0.56818702    -0.03700
C4362       C  0.47769824  0.00005793  0.56467132    -0.08200
C4363       C  0.48860582  0.00845799  0.53802280     0.05400
C4364       C  0.49090911  0.99279114  0.51359602    -0.03200
Br4365     Br  0.54777856  0.99076816  0.96472067    -0.02900
H4366       H  0.52353191  0.94702086  0.97995326     0.09300
H4367       H  0.47626943  0.01142453  0.58410681     0.07300
Br4368     Br  0.45910609  0.96916261  0.60818206    -0.03300
C4369       C  0.33595571  0.79390065  0.54924487    -0.09900
C4370       C  0.35620059  0.78100937  0.55596626     0.06300
C4371       C  0.35459846  0.76114295  0.57470792    -0.03700
C4372       C  0.33317825  0.75490163  0.58735979    -0.08200
C4373       C  0.31338284  0.76907242  0.58319366     0.05400
C4374       C  0.31478041  0.78865882  0.56375989    -0.03200
Br4375     Br  0.28907116  0.80980377  0.55839284    -0.02900
H4376       H  0.33719725  0.80968977  0.53562468     0.09300
H4377       H  0.33241441  0.73990865  0.60252236     0.07300
Br4378     Br  0.38180118  0.74397845  0.58697202    -0.03300
C4379       C  0.34039920  0.82969678  0.45941734    -0.09900
C4380       C  0.36096775  0.82925764  0.94777724     0.06300
C4381       C  0.36252859  0.81214571  0.92505756    -0.03700
C4382       C  0.34363282  0.79754411  0.92001982    -0.08200
C4383       C  0.32306704  0.79948843  0.93737881     0.05400
C4384       C  0.32253053  0.81415080  0.45393057    -0.03200
Br4385     Br  0.29213221  0.82209704  0.46911188    -0.02900
H4386       H  0.33649323  0.84474898  0.47316271     0.09300
H4387       H  0.34536654  0.78401071  0.90321803     0.07300
Br4388     Br  0.39000796  0.80758808  0.90047915    -0.03300
C4389       C  0.46127671  0.48600865  0.64557195    -0.09900
C4390       C  0.47826409  0.50244285  0.63611910     0.06300
C4391       C  0.50061515  0.49366093  0.62895878    -0.03700
C4392       C  0.50506194  0.46946402  0.62843028    -0.08200
C4393       C  0.48762113  0.45289526  0.63490868     0.05400
C4394       C  0.46579175  0.46158671  0.64508055    -0.03200
Br4395     Br  0.44092475  0.44076555  0.65509616    -0.02900
H4396       H  0.44380796  0.49204220  0.65093769     0.09300
H4397       H  0.52231976  0.46347026  0.62223710     0.07300
Br4398     Br  0.52551948  0.51448404  0.61923845    -0.03300
C4399       C  0.52455534  0.56527237  0.93973478    -0.09900
C4400       C  0.53717535  0.58554900  0.93358964     0.06300
C4401       C  0.53085403  0.60617635  0.94834452    -0.03700
C4402       C  0.51480804  0.60518921  0.97213715    -0.08200
C4403       C  0.49965386  0.58175640  0.49068231     0.05400
C4404       C  0.50290568  0.56161537  0.47298577    -0.03200
Br4405     Br  0.48966280  0.53185382  0.48188970    -0.02900
H4406       H  0.52880437  0.54953593  0.92775477     0.09300
H4407       H  0.51110658  0.62116985  0.98402434     0.07300
Br4408     Br  0.54411367  0.63597603  0.93892193    -0.03300
C4409       C  0.42661894  0.44815338  0.57347113    -0.09900
C4410       C  0.40401548  0.44151091  0.56715633     0.06300
C4411       C  0.38645007  0.45078595  0.58616684    -0.03700
C4412       C  0.38921308  0.47344080  0.59672080    -0.08200
C4413       C  0.41024094  0.48500764  0.59047768     0.05400
C4414       C  0.42987671  0.47133066  0.58075531    -0.03200
Br4415     Br  0.46025826  0.48260328  0.56962647    -0.02900
H4416       H  0.45266689  0.44037629  0.05942589     0.09300
H4417       H  0.37436592  0.48257808  0.60634546     0.07300
Br4418     Br  0.35661392  0.43631384  0.58926896    -0.03300
C4419       C  0.30449103  0.64516643  0.63944376    -0.09900
C4420       C  0.30978411  0.66260026  0.66034680     0.06300
C4421       C  0.32934076  0.65956019  0.67925976    -0.03700
C4422       C  0.34341047  0.63981330  0.67620820    -0.08200
C4423       C  0.33912540  0.62316281  0.65379015     0.05400
C4424       C  0.31891934  0.62566837  0.63587953    -0.03200
Br4425     Br  0.31075525  0.60447155  0.60444289    -0.02900
H4426       H  0.28924138  0.64694067  0.62519082     0.09300
H4427       H  0.35881499  0.63827616  0.69021566     0.07300
Br4428     Br  0.33960470  0.68270761  0.70718887    -0.03300
C4429       C  0.44336727  0.73514082  0.54571172    -0.09900
C4430       C  0.44482108  0.75038628  0.57049250     0.06300
C4431       C  0.44316904  0.74047380  0.60024732    -0.03700
C4432       C  0.43987368  0.71631557  0.60437554    -0.08200
C4433       C  0.43858805  0.70129274  0.57945121     0.05400
C4434       C  0.44032603  0.71111733  0.54987150    -0.03200
Br4435     Br  0.43678809  0.69283948  0.51393734    -0.02900
H4436       H  0.44418883  0.74198459  0.52263304     0.09300
H4437       H  0.43843280  0.70920930  0.62727510     0.07300
Br4438     Br  0.44382038  0.75879390  0.63637364    -0.03300
C4439       C  0.31986669  0.64550742  0.53229748    -0.09900
C4440       C  0.34011305  0.65731650  0.54069294     0.06300
C4441       C  0.34296814  0.68046140  0.53110082    -0.03700
C4442       C  0.32571341  0.69147373  0.51367567    -0.08200
C4443       C  0.30569332  0.67951156  0.50435408     0.05400
C4444       C  0.30273249  0.65629301  0.51433063    -0.03200
Br4445     Br  0.27403548  0.64107280  0.00406995    -0.02900
H4446       H  0.31788222  0.62737602  0.53863186     0.09300
H4447       H  0.32862586  0.70919251  0.50603683     0.07300
Br4448     Br  0.37157443  0.69652142  0.53734452    -0.03300
loop_ 
_geom_bond_atom_site_label_1 
_geom_bond_atom_site_label_2 
_geom_bond_distance 
_geom_bond_site_symmetry_2 
_ccdc_geom_bond_type 
Zr1           O2   2.439       .  S
Zr1           O3   2.480       .  S
Zr1           O4   2.476       .  S
Zr1           O7   2.401       .  S
Zr1           O9   2.365       .  S
Zr1          O10   2.401       .  S
Zr1          O11   2.419       .  S
Zr1          O12   2.434       .  S
O2           H58   0.990       .  S
O2           H66   0.990       .  S
O3           C23   1.292       .  A
O4           C25   1.290       .  A
O5          Zr15   2.457       .  S
O5           C24   1.282       .  A
O6          Zr14   2.417       .  S
O6           C25   1.280       .  A
O7           C24   1.270       .  A
O8          Zr16   2.397       .  S
O8           C23   1.276       .  A
O9          Zr14   2.385       .  S
O9          Zr16   2.384       .  S
O10         Zr15   2.408       .  S
O10         Zr16   2.364       .  S
O10          H45   0.964       .  S
O11         Zr14   2.381       .  S
O11         Zr31   2.447       .  S
O11          H48   0.966       .  S
O12         Zr15   2.416       .  S
O12         Zr31   2.424       .  S
Zr13         O38   2.437       .  S
Zr13         O32   2.446       .  S
Zr13         O40   2.372       .  S
Zr13         O28   2.418       .  S
Zr13         O19   2.400       .  S
Zr13         O20   2.390       .  S
Zr13         O21   2.377       .  S
Zr13         O22   2.378       .  S
Zr14         O33   2.436       .  S
Zr14         O26   2.434       .  S
Zr14         O27   2.394       .  S
Zr14         O20   2.394       .  S
Zr14         O21   2.393       .  S
Zr15         O17   2.436       .  S
Zr15         O39   2.435       .  S
Zr15         O41   2.485       .  S
Zr15         O19   2.401       .  S
Zr15         O22   2.368       .  S
Zr16         O42   2.434       .  S
Zr16         O43   2.436   1_554  S
Zr16         O18   2.439   1_554  S
Zr16         O19   2.393       .  S
Zr16         O20   2.370       .  S
O17          H54   0.990       .  S
O18          H63   0.990       .  S
O18        H2273   0.991       .  S
O20          H46   0.965       .  S
O21         Zr31   2.372       .  S
O22         Zr31   2.345       .  S
O22          H47   0.960       .  S
C23        C2216   1.475       .  S
C24        C2199   1.484       .  S
C25        C2209   1.493       .  S
O26          H62   0.991   1_554  S
O27          C29   1.279       .  A
O28          C29   1.282       .  A
C29        C2179   1.475   1_554  S
O30         Zr31   2.438       .  S
O30          H59   0.990       .  S
Zr31         O34   2.434       .  S
Zr31         O35   2.437       .  S
Zr31         O36   2.525       .  S
O32          C37   1.287       .  A
O33          H50   0.990       .  S
O33          H65   0.990       .  S
O34          H51   0.990       .  S
O35          H55   0.991       .  S
O35          H64   0.990       .  S
O36          C37   1.299       .  A
C37        C2166   1.519       .  S
O38          H57   0.990       .  S
O38          H61   0.988       .  S
O39          H53   0.990       .  S
O39          H60   0.990       .  S
O40          C44   1.271       .  A
O41          C44   1.296       .  A
O42          H52   0.990   1_554  S
O43        H2280   0.989       .  S
C44        C2189   1.479       .  S
H49        O2242   0.990       .  S
H56        O2267   0.990       .  S
Zr67       O2292   2.439   1_554  S
Zr67         O69   2.473       .  S
Zr67         O70   2.428       .  S
Zr67         O73   2.389   1_554  S
Zr67         O75   2.363       .  S
Zr67         O76   2.388       .  S
Zr67         O77   2.417       .  S
Zr67         O78   2.420   1_554  S
O68       Zr2291   2.436       .  S
O68         H124   0.991       .  S
O68         H132   0.990       .  S
O69          C89   1.291       .  A
O70          C91   1.284       .  A
O71         Zr81   2.463   1_556  S
O71          C90   1.288       .  A
O72         Zr80   2.483       .  S
O72          C91   1.292       .  A
O73          C90   1.274       .  A
O74         Zr82   2.396       .  S
O74          C89   1.277       .  A
O75         Zr80   2.377       .  S
O75         Zr82   2.356       .  S
O76         Zr81   2.371       .  S
O76         Zr82   2.370       .  S
O76         H111   0.964       .  S
O77         Zr80   2.394       .  S
O77         Zr97   2.444   1_554  S
O77         H114   0.966   1_554  S
O78         Zr81   2.393   1_556  S
O78         Zr97   2.425       .  S
Zr79        O104   2.447       .  S
Zr79         O98   2.467       .  S
Zr79        O106   2.428       .  S
Zr79         O94   2.446       .  S
Zr79         O85   2.404       .  S
Zr79         O86   2.418       .  S
Zr79         O87   2.383       .  S
Zr79         O88   2.391       .  S
Zr80         O99   2.436       .  S
Zr80         O92   2.439       .  S
Zr80         O93   2.428       .  S
Zr80         O86   2.411       .  S
Zr80         O87   2.419       .  S
Zr81        O105   2.440       .  S
Zr81       O2307   2.435   1_554  S
Zr81        O107   2.439       .  S
Zr81         O85   2.403       .  S
Zr81         O88   2.387       .  S
Zr82        O108   2.435       .  S
Zr82        O109   2.441       .  S
Zr82         O84   2.437       .  S
Zr82         O85   2.382       .  S
Zr82         O86   2.368       .  S
O83       Zr2305   2.433       .  S
O83         H120   0.990       .  S
O84         H115   0.990       .  S
O84         H129   0.990       .  S
O86         H112   0.962       .  S
O87         Zr97   2.384   1_554  S
O88         Zr97   2.381   1_554  S
O88         H113   0.964       .  S
C89        C2146   1.469       .  S
C90        C4380   1.477       .  S
C91        C2206   1.500       .  S
O92         H128   0.991       .  S
O93          C95   1.282       .  A
O94          C95   1.286       .  A
C95        C2116   1.474       .  S
O96       Zr2321   2.435       .  S
O96         H125   0.990       .  S
Zr97       O2320   2.436       .  S
Zr97       O2324   2.436       .  S
Zr97       O2325   2.438       .  S
Zr97        O102   2.498       .  S
O98         C103   1.289       .  A
O99         H116   0.990       .  S
O99         H131   0.990       .  S
O100      Zr2321   2.437       .  S
O100        H117   0.990       .  S
O101      Zr2321   2.437       .  S
O101        H121   0.990       .  S
O101        H130   0.990       .  S
O102        C103   1.293   1_556  A
C103       C2136   1.521       .  S
O104        H123   0.989       .  S
O104        H127   0.989       .  S
O105        H119   0.990   1_554  S
O105        H126   0.991       .  S
O106        C110   1.283       .  A
O107        C110   1.282       .  A
O108        H118   0.991       .  S
O109        H122   0.989       .  S
C110       C2129   1.458       .  S
Zr133       O134   2.441       .  S
Zr133       O135   2.510       .  S
Zr133       O136   2.426       .  S
Zr133       O139   2.398       .  S
Zr133       O141   2.377       .  S
Zr133       O142   2.363       .  S
Zr133       O143   2.429       .  S
Zr133       O144   2.432       .  S
O134        H190   0.991       .  S
O134        H198   0.990       .  S
O135        C155   1.298       .  A
O136        C157   1.281       .  A
O137       Zr147   2.428       .  S
O137        C156   1.283       .  A
O138       Zr146   2.473       .  S
O138        C157   1.290   1_655  A
O139        C156   1.280       .  A
O140       Zr148   2.422       .  S
O140        C155   1.281       .  A
O141       Zr146   2.404   1_455  S
O141       Zr148   2.394       .  S
O142       Zr147   2.375       .  S
O142       Zr148   2.356       .  S
O142        H177   0.963       .  S
O143       Zr146   2.398   1_455  S
O143       Zr163   2.453       .  S
O143        H180   0.966       .  S
O144       Zr147   2.394       .  S
O144       Zr163   2.445       .  S
Zr145       O170   2.433   1_455  S
Zr145       O164   2.407   1_455  S
Zr145       O172   2.408       .  S
Zr145       O160   2.408   1_455  S
Zr145       O151   2.397       .  S
Zr145       O152   2.410       .  S
Zr145       O153   2.384   1_455  S
Zr145       O154   2.369       .  S
Zr146       O165   2.436       .  S
Zr146       O158   2.436       .  S
Zr146       O159   2.439       .  S
Zr146       O152   2.431   1_655  S
Zr146       O153   2.423       .  S
Zr147       O149   2.435       .  S
Zr147       O171   2.437       .  S
Zr147       O173   2.426       .  S
Zr147       O151   2.399       .  S
Zr147       O154   2.370       .  S
Zr148       O174   2.434       .  S
Zr148       O175   2.437       .  S
Zr148       O150   2.437       .  S
Zr148       O151   2.404       .  S
Zr148       O152   2.365       .  S
O149        H186   0.990       .  S
O150        H181   0.990       .  S
O150        H195   0.990       .  S
O152        H178   0.962   1_455  S
O153       Zr163   2.357   1_655  S
O154       Zr163   2.339       .  S
O154        H179   0.963       .  S
C155       C2106   1.503       .  S
C156       C2086   1.465       .  S
C157       C2096   1.489       .  S
O158        H194   0.990       .  S
O159        C161   1.275       .  A
O160        C161   1.269       .  A
C161       C2079   1.477       .  S
O162       Zr163   2.436       .  S
O162        H191   0.990       .  S
Zr163       O166   2.436   1_455  S
Zr163       O167   2.435       .  S
Zr163       O168   2.570   1_455  S
O164        C169   1.280       .  A
O165        H182   0.990       .  S
O165        H197   0.990       .  S
O166        H183   0.990       .  S
O167        H187   0.990       .  S
O167        H196   0.990       .  S
O168        C169   1.310       .  A
C169       C2056   1.524       .  S
O170        H189   0.990       .  S
O170        H193   0.990   1_655  S
O171        H185   0.990       .  S
O171        H192   0.990       .  S
O172        C176   1.282       .  A
O173        C176   1.285       .  A
O174        H184   0.990       .  S
O175        H188   0.990       .  S
C176       C2066   1.471       .  S
Zr199       O200   2.440       .  S
Zr199       O201   2.524       .  S
Zr199       O202   2.413       .  S
Zr199       O205   2.387       .  S
Zr199       O207   2.363       .  S
Zr199       O208   2.381       .  S
Zr199       O209   2.429       .  S
Zr199       O210   2.439       .  S
O200        H256   0.989       .  S
O200        H264   0.990       .  S
O201        C221   1.302       .  A
O202        C223   1.281       .  A
O203       Zr213   2.465       .  S
O203        C222   1.286       .  A
O204       Zr212   2.486   1_655  S
O204        C223   1.294   1_655  A
O205        C222   1.267       .  A
O206       Zr214   2.386       .  S
O206        C221   1.276       .  A
O207       Zr212   2.373       .  S
O207       Zr214   2.372       .  S
O208       Zr213   2.395       .  S
O208       Zr214   2.366       .  S
O208        H243   0.962       .  S
O209       Zr212   2.380       .  S
O209       Zr229   2.455       .  S
O209        H246   0.966       .  S
O210       Zr213   2.378       .  S
O210       Zr229   2.447       .  S
Zr211       O236   2.439       .  S
Zr211       O230   2.394       .  S
Zr211       O238   2.424       .  S
Zr211       O226   2.402   1_455  S
Zr211       O217   2.378       .  S
Zr211       O218   2.418       .  S
Zr211       O219   2.379       .  S
Zr211       O220   2.382       .  S
Zr212       O231   2.434   1_455  S
Zr212       O224   2.434   1_455  S
Zr212       O225   2.418   1_455  S
Zr212       O218   2.405       .  S
Zr212       O219   2.420       .  S
Zr213       O215   2.432       .  S
Zr213       O237   2.441       .  S
Zr213       O239   2.405       .  S
Zr213       O217   2.409       .  S
Zr213       O220   2.409       .  S
Zr214       O240   2.431       .  S
Zr214       O241   2.438       .  S
Zr214       O216   2.438       .  S
Zr214       O217   2.369       .  S
Zr214       O218   2.350       .  S
O215        H252   0.990       .  S
O216        H247   0.990       .  S
O216        H261   0.990       .  S
O218        H244   0.964       .  S
O219       Zr229   2.363       .  S
O220       Zr229   2.365       .  S
O220        H245   0.966       .  S
C221       C2039   1.490       .  S
C222       C2046   1.487       .  S
C223       C2099   1.491       .  S
O224        H260   0.990       .  S
O225        C227   1.280       .  A
O226        C227   1.280       .  A
C227       C2016   1.470       .  S
O228       Zr229   2.436       .  S
O228        H257   0.990       .  S
Zr229       O232   2.434   1_455  S
Zr229       O233   2.442       .  S
Zr229       O234   2.542       .  S
O230        C235   1.273       .  A
O231        H248   0.990       .  S
O231        H263   0.990       .  S
O232        H249   0.990       .  S
O233        H253   0.990       .  S
O233        H262   0.990       .  S
O234        C235   1.303       .  A
C235       C2006   1.515       .  S
O236        H255   0.990       .  S
O236        H259   0.991       .  S
O237        H251   0.990       .  S
O237        H258   0.991       .  S
O238        C242   1.285       .  A
O239        C242   1.277       .  A
O240        H250   0.990       .  S
O241        H254   0.990       .  S
C242       C2029   1.452       .  S
Zr265      O2490   2.435       .  S
Zr265       O271   2.447       .  S
Zr265      O2491   2.402       .  S
Zr265      O2492   2.438       .  S
Zr265       O273   2.376       .  S
Zr265       O274   2.392       .  S
Zr265       O275   2.403       .  S
Zr265       O276   2.377       .  S
O266      Zr2489   2.437   1_554  S
O266        H322   0.990       .  S
O266        H330   0.990       .  S
O267      Zr2489   2.418       .  S
O267       C2511   1.280       .  A
O268      Zr2489   2.428   1_554  S
O268        C289   1.283       .  A
O269       Zr279   2.424       .  S
O269        C288   1.283       .  A
O270      Zr2502   2.474   1_554  S
O270        C289   1.291       .  A
O271        C288   1.289       .  A
O272       Zr280   2.458       .  S
O272        C287   1.288       .  A
O273       Zr278   2.409       .  S
O273       Zr280   2.367       .  S
O274       Zr279   2.407       .  S
O274       Zr280   2.377       .  S
O274        H309   0.966       .  S
O275       Zr278   2.424       .  S
O275       Zr295   2.397       .  S
O275       H2536   0.966       .  S
O276       Zr279   2.404       .  S
O276       Zr295   2.359       .  S
Zr277       O302   2.441       .  S
Zr277       O296   2.426       .  S
Zr277       O304   2.373       .  S
Zr277       O292   2.360       .  S
Zr277       O283   2.396       .  S
Zr277       O284   2.396       .  S
Zr277       O285   2.365       .  S
Zr277       O286   2.366       .  S
Zr278       O297   2.436       .  S
Zr278       O290   2.434       .  S
Zr278       O291   2.521       .  S
Zr278      O2494   2.461       .  S
Zr278       O284   2.389       .  S
Zr278       O285   2.379       .  S
Zr279       O281   2.436       .  S
Zr279       O303   2.437       .  S
Zr279       O305   2.480       .  S
Zr279       O283   2.383       .  S
Zr279       O286   2.393       .  S
Zr280       O306   2.433       .  S
Zr280       O307   2.436       .  S
Zr280       O282   2.438       .  S
Zr280       O283   2.413       .  S
Zr280       O284   2.406       .  S
O281        H318   0.990       .  S
O282        H313   0.990       .  S
O282        H327   0.990       .  S
O284        H310   0.965       .  S
O285       Zr295   2.378       .  S
O286       Zr295   2.391       .  S
O286        H311   0.966       .  S
C287       O2491   1.278       .  A
C287       C4443   1.488       .  S
C288       C2159   1.469       .  S
C289        C355   1.484       .  S
O290        H326   0.990       .  S
O291        C293   1.302       .  A
O292        C293   1.270       .  A
C293       C2036   1.480       .  S
O294       Zr295   2.434       .  S
O294        H323   0.990       .  S
Zr295       O298   2.435       .  S
Zr295       O299   2.437       .  S
Zr295       O300   2.389       .  S
O296        C301   1.281       .  A
O297       H2538   0.990       .  S
O297       H2553   0.990       .  S
O298        H315   0.990       .  S
O299        H319   0.990       .  S
O299        H328   0.990       .  S
O300        C301   1.275       .  A
C301       C2089   1.475       .  S
O302        H321   0.991       .  S
O302        H325   0.990       .  S
O303        H317   0.990       .  S
O303        H324   0.990       .  S
O304        C308   1.274       .  A
O305        C308   1.289       .  A
O306        H316   0.990       .  S
O307        H320   0.990       .  S
C308        C374   1.474       .  S
H312       O2499   0.966       .  S
H314       O2521   0.990       .  S
H329       O2521   0.990       .  S
Zr331       O332   2.441       .  S
Zr331       O333   2.416       .  S
Zr331       O334   2.426       .  S
Zr331       O337   2.449       .  S
Zr331       O339   2.384       .  S
Zr331       O340   2.390       .  S
Zr331       O341   2.404       .  S
Zr331       O342   2.377       .  S
O332        H388   0.990       .  S
O332        H396   0.990       .  S
O333        C353   1.280       .  A
O334        C355   1.284       .  A
O335       Zr345   2.430       .  S
O335        C354   1.284       .  A
O336       Zr344   2.477       .  S
O336        C355   1.292       .  A
O337        C354   1.290       .  A
O338       Zr346   2.450       .  S
O338        C353   1.287       .  A
O339       Zr344   2.411       .  S
O339       Zr346   2.367       .  S
O340       Zr345   2.397       .  S
O340       Zr346   2.379       .  S
O340        H375   0.966       .  S
O341       Zr344   2.415       .  S
O341       Zr361   2.389       .  S
O341        H378   0.966       .  S
O342       Zr345   2.392       .  S
O342       Zr361   2.355       .  S
Zr343       O368   2.442       .  S
Zr343       O362   2.448       .  S
Zr343       O370   2.397       .  S
Zr343       O358   2.396       .  S
Zr343       O349   2.400       .  S
Zr343       O350   2.405       .  S
Zr343       O351   2.377       .  S
Zr343       O352   2.368       .  S
Zr344       O363   2.433       .  S
Zr344       O356   2.436       .  S
Zr344       O357   2.524       .  S
Zr344       O350   2.401       .  S
Zr344       O351   2.382       .  S
Zr345       O347   2.436       .  S
Zr345       O369   2.436       .  S
Zr345       O371   2.462       .  S
Zr345       O349   2.390       .  S
Zr345       O352   2.379       .  S
Zr346       O372   2.437       .  S
Zr346       O373   2.436       .  S
Zr346       O348   2.435       .  S
Zr346       O349   2.407       .  S
Zr346       O350   2.415       .  S
O347        H384   0.990       .  S
O348        H379   0.990       .  S
O348        H393   0.990       .  S
O350        H376   0.966       .  S
O351       Zr361   2.377       .  S
O352       Zr361   2.381       .  S
O352        H377   0.966       .  S
C353       C2149   1.481       .  S
C354       C2196   1.486       .  S
O356        H392   0.990       .  S
O357        C359   1.302       .  A
O358        C359   1.278       .  A
C359       C2109   1.500       .  S
O360       Zr361   2.434       .  S
O360        H389   0.990       .  S
Zr361       O364   2.435       .  S
Zr361       O365   2.437       .  S
Zr361       O366   2.371       .  S
O362        C367   1.286       .  A
O363        H380   0.990       .  S
O363        H395   0.990       .  S
O364        H381   0.990       .  S
O365        H385   0.990       .  S
O365        H394   0.990       .  S
O366        C367   1.273       .  A
C367       C2049   1.457       .  S
O368        H387   0.990       .  S
O368        H391   0.990       .  S
O369        H383   0.990       .  S
O369        H390   0.989       .  S
O370        C374   1.281       .  A
O371        C374   1.286       .  A
O372        H382   0.989       .  S
O373        H386   0.990       .  S
Zr397       O398   2.432       .  S
Zr397       O399   2.426       .  S
Zr397       O400   2.442       .  S
Zr397       O403   2.459       .  S
Zr397       O405   2.379       .  S
Zr397       O406   2.401       .  S
Zr397       O407   2.414       .  S
Zr397       O408   2.358       .  S
O398        H454   0.989       .  S
O398        H462   0.990       .  S
O399        C419   1.283       .  A
O400        C421   1.276       .  A
O401       Zr411   2.435       .  S
O401        C420   1.289       .  A
O402       Zr410   2.422       .  S
O402        C421   1.275       .  A
O403        C420   1.289       .  A
O404       Zr412   2.530       .  S
O404        C419   1.300       .  A
O405       Zr410   2.409       .  S
O405       Zr412   2.374       .  S
O406       Zr411   2.426       .  S
O406       Zr412   2.384       .  S
O406        H441   0.966       .  S
O407       Zr410   2.435       .  S
O407       Zr427   2.387       .  S
O407        H444   0.964       .  S
O408       Zr411   2.355       .  S
O408       Zr427   2.331       .  S
Zr409       O434   2.437       .  S
Zr409       O428   2.500       .  S
Zr409       O436   2.419       .  S
Zr409       O424   2.403       .  S
Zr409       O415   2.421       .  S
Zr409       O416   2.434       .  S
Zr409       O417   2.377       .  S
Zr409       O418   2.366       .  S
Zr410       O429   2.442       .  S
Zr410       O422   2.436       .  S
Zr410       O423   2.462       .  S
Zr410       O416   2.401       .  S
Zr410       O417   2.380       .  S
Zr411       O413   2.440       .  S
Zr411       O435   2.439   1_565  S
Zr411       O437   2.492       .  S
Zr411       O415   2.375       .  S
Zr411       O418   2.396       .  S
Zr412       O438   2.437   1_565  S
Zr412       O439   2.436       .  S
Zr412       O414   2.437       .  S
Zr412       O415   2.444       .  S
Zr412       O416   2.443       .  S
O413        H450   0.990   1_565  S
O414        H445   0.990       .  S
O414        H459   0.990       .  S
O416        H442   0.966       .  S
O417       Zr427   2.356       .  S
O418       Zr427   2.381       .  S
O418        H443   0.964       .  S
C419       C1956   1.525       .  S
C420       C1966   1.472       .  S
C421       C2119   1.473       .  S
O422        H458   0.990       .  S
O423        C425   1.288       .  A
O424        C425   1.273       .  A
C425       C1976   1.483       .  S
O426       Zr427   2.437       .  S
O426        H455   0.990       .  S
Zr427       O430   2.436       .  S
Zr427       O431   2.438       .  S
Zr427       O432   2.386       .  S
O428        C433   1.296       .  A
O429        H446   0.990       .  S
O429        H461   0.990       .  S
O430        H447   0.990       .  S
O431        H451   0.990       .  S
O431        H460   0.990       .  S
O432        C433   1.275       .  A
C433       C1996   1.492       .  S
O434        H453   0.990       .  S
O434        H457   0.990       .  S
O435        H449   0.990       .  S
O435        H456   0.990       .  S
O436        C440   1.284       .  A
O437        C440   1.293       .  A
O438        H448   0.990       .  S
O439        H452   0.990       .  S
C440       C1989   1.507       .  S
Zr463       O464   2.431   1_565  S
Zr463       O465   2.420   1_565  S
Zr463       O466   2.430       .  S
Zr463       O469   2.439   1_565  S
Zr463       O471   2.393       .  S
Zr463       O472   2.397   1_565  S
Zr463       O473   2.436       .  S
Zr463       O474   2.408       .  S
O464        H520   0.988       .  S
O464        H528   0.989       .  S
O465        C485   1.279   1_545  A
O466        C487   1.274       .  A
O467       Zr477   2.404   1_545  S
O467        C486   1.276       .  A
O468       Zr476   2.416       .  S
O468        C487   1.273       .  A
O469        C486   1.280       .  A
O470       Zr478   2.529       .  S
O470        C485   1.300       .  A
O471       Zr476   2.396       .  S
O471       Zr478   2.341       .  S
O472       Zr477   2.425   1_545  S
O472       Zr478   2.369   1_545  S
O472        H507   0.966       .  S
O473       Zr476   2.411       .  S
O473       Zr493   2.364       .  S
O473        H510   0.956       .  S
O474       Zr477   2.415       .  S
O474       Zr493   2.386       .  S
Zr475       O500   2.441       .  S
Zr475       O494   2.499       .  S
Zr475       O502   2.458       .  S
Zr475       O490   2.403       .  S
Zr475       O481   2.427       .  S
Zr475       O482   2.430       .  S
Zr475       O483   2.361       .  S
Zr475       O484   2.371       .  S
Zr476       O495   2.439       .  S
Zr476       O488   2.435       .  S
Zr476       O489   2.434       .  S
Zr476       O482   2.402       .  S
Zr476       O483   2.382       .  S
Zr477       O479   2.441   1_565  S
Zr477       O501   2.439   1_565  S
Zr477       O503   2.470       .  S
Zr477       O481   2.383       .  S
Zr477       O484   2.403       .  S
Zr478       O504   2.436   1_565  S
Zr478       O505   2.435       .  S
Zr478       O480   2.438       .  S
Zr478       O481   2.459       .  S
Zr478       O482   2.394       .  S
O479        H516   0.990       .  S
O480        H511   0.990       .  S
O480        H525   0.990       .  S
O482        H508   0.962       .  S
O483       Zr493   2.380       .  S
O484       Zr493   2.365       .  S
O484        H509   0.963       .  S
C485       C1916   1.515   1_565  S
C486       C1926   1.455       .  S
C487       C2076   1.483       .  S
O488        H524   0.990       .  S
O489        C491   1.281       .  A
O490        C491   1.282       .  A
C491       C1946   1.449       .  S
O492       Zr493   2.432       .  S
O492        H521   0.990       .  S
Zr493       O496   2.440       .  S
Zr493       O497   2.439       .  S
Zr493       O498   2.411       .  S
O494        C499   1.297       .  A
O495        H512   0.989       .  S
O495        H527   0.990       .  S
O496        H513   0.990       .  S
O497        H517   0.990       .  S
O497        H526   0.990       .  S
O498        C499   1.280       .  A
C499       C1936   1.504       .  S
O500        H519   0.990       .  S
O500        H523   0.990       .  S
O501        H515   0.990       .  S
O501        H522   0.990       .  S
O502        C506   1.290       .  A
O503        C506   1.289       .  A
O504        H514   0.990       .  S
O505        H518   0.990       .  S
C506       C1986   1.501       .  S
Zr529       O530   2.432       .  S
Zr529       O531   2.374       .  S
Zr529       O532   2.430       .  S
Zr529       O535   2.409       .  S
Zr529       O537   2.373       .  S
Zr529       O538   2.384       .  S
Zr529       O539   2.398       .  S
Zr529       O540   2.382       .  S
O530        H586   0.989       .  S
O530       H2818   0.988       .  S
O531        C551   1.276       .  A
O532        C553   1.272       .  A
O533       Zr543   2.412       .  S
O533        C552   1.283       .  A
O534       Zr542   2.413       .  S
O534        C553   1.265       .  A
O535        C552   1.279       .  A
O536       Zr544   2.564       .  S
O536        C551   1.310       .  A
O537       Zr542   2.413       .  S
O537       Zr544   2.321       .  S
O538       Zr543   2.400       .  S
O538       Zr544   2.369       .  S
O538        H573   0.966       .  S
O539       Zr542   2.443       .  S
O539       Zr559   2.362       .  S
O539        H576   0.966       .  S
O540       Zr543   2.405       .  S
O540       Zr559   2.370       .  S
Zr541       O566   2.441       .  S
Zr541       O560   2.490       .  S
Zr541       O568   2.404       .  S
Zr541       O556   2.401       .  S
Zr541       O547   2.424       .  S
Zr541       O548   2.429       .  S
Zr541       O549   2.372       .  S
Zr541       O550   2.371       .  S
Zr542       O561   2.436       .  S
Zr542       O554   2.435       .  S
Zr542       O555   2.444       .  S
Zr542       O548   2.398       .  S
Zr542       O549   2.384       .  S
Zr543       O545   2.437       .  S
Zr543       O567   2.437       .  S
Zr543       O569   2.486       .  S
Zr543       O547   2.376       .  S
Zr543       O550   2.366       .  S
Zr544       O570   2.435       .  S
Zr544       O571   2.436       .  S
Zr544       O546   2.437       .  S
Zr544       O547   2.450       .  S
Zr544       O548   2.448       .  S
O545        H582   0.990       .  S
O546        H577   0.990       .  S
O546        H591   0.990       .  S
O548        H574   0.966       .  S
O549       Zr559   2.381       .  S
O550       Zr559   2.387       .  S
O550        H575   0.965       .  S
C551       C1866   1.510       .  S
C552       C4100   1.471       .  S
C553       C2176   1.462       .  S
O554        H590   0.990       .  S
O555        C557   1.285       .  A
O556        C557   1.279       .  A
C557       C1886   1.489       .  S
O558      Zr2783   2.438   1_554  S
O558        H587   0.990       .  S
Zr559       O562   2.434       .  S
Zr559      O2782   2.438       .  S
Zr559      O2787   2.437       .  S
Zr559       O564   2.348       .  S
O560        C565   1.294       .  A
O561        H578   0.990       .  S
O561        H593   0.989       .  S
O562       H2803   0.990       .  S
O563      Zr2783   2.440   1_554  S
O563        H583   0.990       .  S
O563        H592   0.990       .  S
O564        C565   1.269       .  A
C565       C1906   1.487       .  S
O566        H585   0.990       .  S
O566        H589   0.990       .  S
O567        H581   0.990       .  S
O567        H588   0.990       .  S
O568        C572   1.278       .  A
O569        C572   1.292       .  A
O570        H580   0.990       .  S
O571        H584   0.990       .  S
C572       C1896   1.484       .  S
H579       O2786   0.990   1_554  S
H594       O2754   0.989   1_554  S
Zr595       O596   2.432       .  S
Zr595       O597   2.407       .  S
Zr595       O598   2.432       .  S
Zr595       O601   2.399       .  S
Zr595       O603   2.377       .  S
Zr595       O604   2.380       .  S
Zr595       O605   2.405       .  S
Zr595       O606   2.390       .  S
O596        H652   0.989       .  S
O596        H660   0.988       .  S
O597        C617   1.277       .  A
O598        C619   1.275       .  A
O599       Zr609   2.426       .  S
O599        C618   1.284       .  A
O600       Zr608   2.402       .  S
O600        C619   1.274       .  A
O601        C618   1.280       .  A
O602       Zr610   2.526       .  S
O602       C2841   1.300       .  A
O603       Zr608   2.400       .  S
O603      Zr2834   2.354       .  S
O604       Zr609   2.410       .  S
O604      Zr2834   2.369       .  S
O604        H639   0.966       .  S
O605       Zr608   2.438       .  S
O605       Zr625   2.373       .  S
O605        H642   0.960       .  S
O606       Zr609   2.388       .  S
O606       Zr625   2.364       .  S
Zr607      O2856   2.435       .  S
Zr607       O626   2.530       .  S
Zr607       O634   2.445       .  S
Zr607      O2846   2.386       .  S
Zr607       O613   2.422       .  S
Zr607       O615   2.366       .  S
Zr607       O616   2.377       .  S
Zr607      O2838   2.445       .  S
Zr608       O627   2.443       .  S
Zr608      O2844   2.433       .  S
Zr608      O2845   2.447       .  S
Zr608       O615   2.381       .  S
Zr608      O2838   2.392       .  S
Zr609       O611   2.440       .  S
Zr609       O633   2.438       .  S
Zr609       O635   2.471       .  S
Zr609       O613   2.372       .  S
Zr609       O616   2.398       .  S
Zr610       O636   2.435       .  S
Zr610       O637   2.436       .  S
Zr610       O612   2.437       .  S
Zr610       O614   2.432       .  S
Zr610      O2827   2.360       .  S
Zr610      O2828   2.373       .  S
Zr610      O2837   2.442       .  S
O611        H648   0.990       .  S
O612        H643   0.991       .  S
O612        H657   0.990       .  S
O613      Zr2834   2.446       .  S
O614      Zr2831   2.445       .  S
O614      Zr2832   2.392   1_554  S
O614        H640   0.966       .  S
O615       Zr625   2.368       .  S
O616       Zr625   2.365       .  S
O616        H641   0.964       .  S
C617       O2826   1.302       .  A
C617       C1826   1.514       .  S
C618       C1836   1.450       .  S
C619       C2019   1.462       .  S
O620      Zr2832   2.433   1_554  S
O620        H656   0.990       .  S
O621      Zr2832   2.449   1_554  S
O621        C623   1.283       .  A
O622      Zr2831   2.389       .  S
O622        C623   1.267       .  A
C623       C1856   1.479       .  S
O624       Zr625   2.438       .  S
O624        H653   0.990       .  S
Zr625       O628   2.435       .  S
Zr625       O629   2.438       .  S
Zr625       O630   2.410       .  S
O626        C631   1.303       .  A
O627        H644   0.990       .  S
O627        H659   0.991       .  S
O628        H645   0.990       .  S
O629        H649   0.991       .  S
O629        H658   0.990       .  S
O630        C631   1.280       .  A
C631       C1846   1.510       .  S
O632      Zr2831   2.438       .  S
O632        H651   0.990       .  S
O632        H655   0.990       .  S
O633        H647   0.990       .  S
O633        H654   0.990       .  S
O634        C638   1.289       .  A
O635        C638   1.290       .  A
O636        H646   0.990       .  S
O637        H650   0.990       .  S
C638       C1899   1.497       .  S
Zr661       O662   2.441       .  S
Zr661       O663   2.460       .  S
Zr661       O664   2.413       .  S
Zr661       O667   2.396       .  S
Zr661       O669   2.377       .  S
Zr661       O670   2.402       .  S
Zr661       O671   2.423       .  S
Zr661       O672   2.420       .  S
O662        H718   0.991       .  S
O662        H726   0.989       .  S
O663        C683   1.277       .  A
O664        C685   1.280       .  A
O665       Zr675   2.505       .  S
O665        C684   1.293       .  A
O666       Zr674   2.475       .  S
O666        C685   1.289       .  A
O667        C684   1.273       .  A
O668       Zr676   2.384       .  S
O668        C683   1.263       .  A
O669       Zr674   2.381       .  S
O669       Zr676   2.388       .  S
O670       Zr675   2.387       .  S
O670       Zr676   2.389       .  S
O670        H705   0.966       .  S
O671       Zr674   2.402       .  S
O671       Zr691   2.430       .  S
O671        H708   0.966       .  S
O672       Zr675   2.395       .  S
O672       Zr691   2.429       .  S
Zr673       O698   2.437       .  S
Zr673       O692   2.410       .  S
Zr673       O700   2.420       .  S
Zr673       O688   2.432       .  S
Zr673       O679   2.389       .  S
Zr673       O680   2.385       .  S
Zr673       O681   2.374       .  S
Zr673       O682   2.382       .  S
Zr674       O693   2.436       .  S
Zr674       O686   2.433       .  S
Zr674       O687   2.432       .  S
Zr674       O680   2.415       .  S
Zr674       O681   2.402       .  S
Zr675       O677   2.434       .  S
Zr675       O699   2.436       .  S
Zr675       O701   2.455       .  S
Zr675       O679   2.417       .  S
Zr675       O682   2.411       .  S
Zr676       O702   2.439       .  S
Zr676       O703   2.438       .  S
Zr676       O678   2.440       .  S
Zr676       O679   2.382       .  S
Zr676       O680   2.374       .  S
O677        H714   0.990       .  S
O678        H709   0.990       .  S
O678        H723   0.990       .  S
O680        H706   0.966       .  S
O681       Zr691   2.361       .  S
O682       Zr691   2.364       .  S
O682        H707   0.966       .  S
C683       C1979   1.487       .  S
C684       C1939   1.514       .  S
C685        C770   1.488       .  S
O686        H722   0.990       .  S
O687        C689   1.285       .  A
O688        C689   1.286       .  A
C689       C1889   1.465       .  S
O690       Zr691   2.439       .  S
O690        H719   0.990       .  S
Zr691       O694   2.437       .  S
Zr691       O695   2.440       .  S
Zr691       O696   2.506       .  S
O692        C697   1.277       .  A
O693        H710   0.990       .  S
O693        H725   0.990       .  S
O694        H711   0.990       .  S
O695        H715   0.990       .  S
O695        H724   0.989       .  S
O696        C697   1.298       .  A
C697       C1849   1.521       .  S
O698        H717   0.989       .  S
O698        H721   0.990       .  S
O699        H713   0.990       .  S
O699        H720   0.990       .  S
O700        C704   1.287       .  A
O701        C704   1.287       .  A
O702        H712   0.990       .  S
O703        H716   0.990       .  S
C704        C751   1.478       .  S
Zr727      O2952   2.437   1_554  S
Zr727       O729   2.420   1_554  S
Zr727       O733   2.394       .  S
Zr727      O2954   2.387   1_554  S
Zr727       O735   2.379       .  S
Zr727       O736   2.403       .  S
Zr727       O737   2.392       .  S
Zr727       O738   2.394       .  S
O728      Zr2951   2.437       .  S
O728        H784   0.990       .  S
O728        H792   0.990       .  S
O729        C749   1.277   1_556  A
O730      Zr2951   2.381       .  S
O730        C751   1.276       .  A
O731       Zr741   2.479       .  S
O731        C750   1.290       .  A
O732      Zr2964   2.478       .  S
O732        C751   1.291       .  A
O733        C750   1.274       .  A
O734       Zr742   2.424       .  S
O734        C749   1.271       .  A
O735       Zr740   2.364       .  S
O735       Zr742   2.379       .  S
O736       Zr741   2.407       .  S
O736       Zr742   2.361       .  S
O736        H771   0.964       .  S
O737       Zr740   2.395       .  S
O737       Zr757   2.395       .  S
O737        H774   0.966       .  S
O738       Zr741   2.407       .  S
O738       Zr757   2.397       .  S
Zr739       O764   2.435       .  S
Zr739       O758   2.460       .  S
Zr739       O766   2.418       .  S
Zr739       O754   2.439       .  S
Zr739       O745   2.410       .  S
Zr739       O746   2.413       .  S
Zr739       O747   2.384       .  S
Zr739       O748   2.381       .  S
Zr740       O759   2.435       .  S
Zr740       O752   2.434       .  S
Zr740       O753   2.411       .  S
Zr740      O2956   2.477   1_554  S
Zr740       O746   2.421       .  S
Zr740       O747   2.407       .  S
Zr741       O743   2.435       .  S
Zr741       O765   2.436       .  S
Zr741       O767   2.472       .  S
Zr741       O745   2.410       .  S
Zr741       O748   2.410       .  S
Zr742       O768   2.438       .  S
Zr742       O769   2.440       .  S
Zr742       O744   2.439       .  S
Zr742       O745   2.395       .  S
Zr742       O746   2.362       .  S
O743        H780   0.990       .  S
O744        H775   0.989       .  S
O744        H789   0.990       .  S
O746        H772   0.962       .  S
O747       Zr757   2.377       .  S
O748       Zr757   2.373       .  S
O748        H773   0.966       .  S
C749       C1859   1.454   1_554  S
C750       C1909   1.495       .  S
O752        H788   0.990       .  S
O753        C755   1.281       .  A
O754        C755   1.286       .  A
C755       C1949   1.463       .  S
O756       Zr757   2.434       .  S
O756        H785   0.990       .  S
Zr757       O760   2.436       .  S
Zr757       O761   2.437       .  S
Zr757       O762   2.419       .  S
O758        C763   1.287       .  A
O759        H776   0.990       .  S
O759        H791   0.990   1_554  S
O760        H777   0.990       .  S
O761        H781   0.990       .  S
O761        H790   0.990       .  S
O762        C763   1.282       .  A
C763       C1999   1.487       .  S
O764        H783   0.989       .  S
O764        H787   0.990       .  S
O765        H779   0.990       .  S
O765        H786   0.990       .  S
O766        C770   1.284       .  A
O767        C770   1.290       .  A
O768        H778   0.990       .  S
O769        H782   0.990       .  S
Zr793       O794   2.439       .  S
Zr793       O795   2.484       .  S
Zr793       O796   2.428       .  S
Zr793       O799   2.394       .  S
Zr793       O801   2.364       .  S
Zr793       O802   2.381       .  S
Zr793       O803   2.420       .  S
Zr793       O804   2.427       .  S
O794        H850   0.990       .  S
O794        H858   0.990       .  S
O795        C815   1.293       .  A
O796        C817   1.283       .  A
O797       Zr807   2.466       .  S
O797        C816   1.288       .  A
O798       Zr806   2.492       .  S
O798        C817   1.294       .  A
O799        C816   1.273       .  A
O800       Zr808   2.387       .  S
O800        C815   1.275       .  A
O801       Zr806   2.370       .  S
O801       Zr808   2.381       .  S
O802       Zr807   2.365       .  S
O802       Zr808   2.364       .  S
O802        H837   0.963       .  S
O803       Zr806   2.384       .  S
O803       Zr823   2.456       .  S
O803        H840   0.966       .  S
O804       Zr807   2.391       .  S
O804       Zr823   2.438       .  S
Zr805       O830   2.443       .  S
Zr805       O824   2.462       .  S
Zr805       O832   2.414       .  S
Zr805       O820   2.471       .  S
Zr805       O811   2.412       .  S
Zr805       O812   2.404       .  S
Zr805       O813   2.382       .  S
Zr805       O814   2.399       .  S
Zr806       O825   2.436       .  S
Zr806       O818   2.438       .  S
Zr806       O819   2.402       .  S
Zr806       O812   2.409       .  S
Zr806       O813   2.422       .  S
Zr807       O809   2.436       .  S
Zr807       O831   2.435       .  S
Zr807       O833   2.411       .  S
Zr807       O811   2.421       .  S
Zr807       O814   2.399       .  S
Zr808       O834   2.437       .  S
Zr808       O835   2.437       .  S
Zr808       O810   2.437       .  S
Zr808       O811   2.370       .  S
Zr808       O812   2.352       .  S
O809        H846   0.990       .  S
O810        H841   0.990       .  S
O810        H855   0.990       .  S
O812        H838   0.962       .  S
O813       Zr823   2.380       .  S
O814       Zr823   2.351       .  S
O814        H839   0.962       .  S
C815       C1819   1.470       .  S
C816       C1799   1.477       .  S
C817       C1806   1.506       .  S
O818        H854   0.991       .  S
O819        C821   1.279   1_554  A
O820        C821   1.292   1_554  A
C821       C1789   1.474       .  S
O822       Zr823   2.436       .  S
O822        H851   0.990       .  S
Zr823       O826   2.436       .  S
Zr823       O827   2.439       .  S
Zr823       O828   2.532       .  S
O824        C829   1.289       .  A
O825        H842   0.990       .  S
O825        H857   0.990       .  S
O826        H843   0.990       .  S
O827        H847   0.990       .  S
O827        H856   0.990       .  S
O828        C829   1.301       .  A
C829       C2169   1.532       .  S
O830        H849   0.990       .  S
O830        H853   0.989       .  S
O831        H845   0.990       .  S
O831        H852   0.990       .  S
O832        C836   1.280       .  A
O833        C836   1.276       .  A
O834        H844   0.989       .  S
O835        H848   0.991       .  S
C836       C1879   1.449       .  S
Zr859      O3084   2.439   1_554  S
Zr859       O861   2.498       .  S
Zr859       O862   2.482       .  S
Zr859      O3089   2.395   1_554  S
Zr859       O867   2.355       .  S
Zr859       O868   2.383       .  S
Zr859       O869   2.427       .  S
Zr859       O870   2.442   1_554  S
O860      Zr3083   2.437       .  S
O860        H916   0.990       .  S
O860        H924   0.990       .  S
O861        C881   1.295       .  A
O862        C883   1.292       .  A
O863       Zr873   2.436       .  S
O863       C3106   1.284   1_554  A
O864       Zr872   2.449       .  S
O864        C883   1.285       .  A
O865      Zr3083   2.408       .  S
O865        C882   1.270       .  A
O866       Zr874   2.393       .  S
O866        C881   1.278       .  A
O867       Zr872   2.388       .  S
O867       Zr874   2.387       .  S
O868       Zr873   2.387       .  S
O868       Zr874   2.367       .  S
O868        H903   0.966       .  S
O869       Zr872   2.377       .  S
O869      Zr3113   2.458   1_554  S
O869        H906   0.966   1_554  S
O870       Zr873   2.404   1_556  S
O870      Zr3113   2.436       .  S
Zr871       O896   2.439       .  S
Zr871       O890   2.389       .  S
Zr871       O898   2.387       .  S
Zr871       O886   2.393       .  S
Zr871       O877   2.393       .  S
Zr871       O878   2.390       .  S
Zr871       O879   2.378       .  S
Zr871       O880   2.381       .  S
Zr872       O891   2.434       .  S
Zr872       O884   2.436       .  S
Zr872       O885   2.389       .  S
Zr872       O878   2.407       .  S
Zr872       O879   2.395       .  S
Zr873       O897   2.436       .  S
Zr873      O3099   2.436   1_554  S
Zr873       O899   2.455       .  S
Zr873       O877   2.403       .  S
Zr873       O880   2.369       .  S
Zr874       O900   2.435       .  S
Zr874       O901   2.438       .  S
Zr874       O876   2.437       .  S
Zr874       O877   2.388       .  S
Zr874       O878   2.362       .  S
O875      Zr3097   2.434       .  S
O875        H912   0.990       .  S
O876        H907   0.990       .  S
O876        H921   0.990       .  S
O878        H904   0.964       .  S
O879      Zr3113   2.364   1_554  S
O880      Zr3113   2.338   1_554  S
O880        H905   0.962       .  S
C881       C1766   1.511       .  S
C882       O3087   1.277       .  A
C882       C1776   1.472       .  S
C883       C1809   1.515       .  S
O884        H920   0.991       .  S
O885        C887   1.277       .  A
O886        C887   1.278       .  A
C887       C1759   1.434       .  S
O888       Zr889   2.435       .  S
O888        H917   0.990       .  S
Zr889       O892   2.435       .  S
Zr889       O893   2.437       .  S
Zr889       O894   2.549       .  S
Zr889      O3093   2.450       .  S
Zr889      O3094   2.425       .  S
Zr889      O3103   2.361       .  S
Zr889      O3104   2.339       .  S
O890        C895   1.274   1_554  A
O891        H908   0.991       .  S
O891        H923   0.990       .  S
O892        H909   0.990       .  S
O893        H913   0.990       .  S
O893        H922   0.990       .  S
O894       C3119   1.305       .  A
C895       O3118   1.303       .  A
C895       C2139   1.515       .  S
O896        H915   0.991       .  S
O896        H919   0.990       .  S
O897        H911   0.990       .  S
O897        H918   0.990       .  S
O898        C902   1.279       .  A
O899        C902   1.288       .  A
O900        H910   0.990       .  S
O901        H914   0.990       .  S
C902       C1969   1.475   1_545  S
Zr925       O926   2.440       .  S
Zr925       O927   2.532       .  S
Zr925       O928   2.445       .  S
Zr925       O931   2.391       .  S
Zr925       O933   2.360       .  S
Zr925       O934   2.382       .  S
Zr925       O935   2.438       .  S
Zr925       O936   2.343       .  S
O926        H982   0.991       .  S
O926        H990   0.990       .  S
O927        C947   1.302       .  A
O928        C949   1.286       .  A
O929       Zr939   2.445       .  S
O929        C948   1.279       .  A
O930       Zr938   2.471       .  S
O930        C949   1.290       .  A
O931        C948   1.273       .  A
O932       Zr940   2.383       .  S
O932        C947   1.271       .  A
O933       Zr938   2.394       .  S
O933       Zr940   2.365       .  S
O934       Zr939   2.390       .  S
O934       Zr940   2.373       .  S
O934        H969   0.964       .  S
O935       Zr938   2.389       .  S
O935       Zr955   2.459       .  S
O935        H972   0.966       .  S
O936       Zr939   2.274       .  S
O936       Zr955   2.342       .  S
Zr937       O962   2.449       .  S
Zr937       O956   2.441       .  S
Zr937       O964   2.434       .  S
Zr937       O952   2.466       .  S
Zr937       O943   2.400       .  S
Zr937       O944   2.419       .  S
Zr937       O945   2.391       .  S
Zr937       O946   2.401       .  S
Zr938       O957   2.437   1_655  S
Zr938       O950   2.440   1_655  S
Zr938       O951   2.417   1_655  S
Zr938       O944   2.425       .  S
Zr938       O945   2.417       .  S
Zr939       O941   2.437       .  S
Zr939       O963   2.434       .  S
Zr939       O965   2.405       .  S
Zr939       O943   2.400       .  S
Zr939       O946   2.394       .  S
Zr940       O966   2.436       .  S
Zr940       O967   2.439       .  S
Zr940       O942   2.445       .  S
Zr940       O943   2.366       .  S
Zr940       O944   2.346       .  S
O941        H978   0.990       .  S
O942        H973   0.990       .  S
O942        H987   0.990       .  S
O944        H970   0.957       .  S
O945       Zr955   2.374       .  S
O946       Zr955   2.358       .  S
O946        H971   0.965       .  S
C947       C1746   1.515       .  S
C948       C1729   1.482       .  S
C949       C1736   1.500       .  S
O950        H986   0.990       .  S
O951        C953   1.278       .  A
O952        C953   1.287   1_655  A
C953       C1716   1.483       .  S
O954       Zr955   2.438       .  S
O954        H983   0.990       .  S
Zr955       O958   2.432       .  S
Zr955       O959   2.439       .  S
Zr955       O960   2.542       .  S
O956        C961   1.283       .  A
O957        H974   0.990       .  S
O957        H989   0.990       .  S
O958        H975   0.990       .  S
O959        H979   0.990       .  S
O959        H988   0.991       .  S
O960        C961   1.303       .  A
C961       C2059   1.529   1_545  S
O962        H981   0.990       .  S
O962        H985   0.990       .  S
O963        H977   0.990       .  S
O963        H984   0.990       .  S
O964        C968   1.284       .  A
O965        C968   1.269       .  A
O966        H976   0.990       .  S
O967        H980   0.990       .  S
C968       C1929   1.460       .  S
Zr991       O992   2.435       .  S
Zr991       O993   2.487       .  S
Zr991       O994   2.401       .  S
Zr991       O997   2.364       .  S
Zr991       O999   2.364       .  S
Zr991      O1000   2.370       .  S
Zr991      O1001   2.416       .  S
Zr991      O1002   2.423       .  S
O992       H1048   0.990       .  S
O992       H1056   0.990       .  S
O993       C1013   1.294       .  A
O994       C1015   1.277       .  A
O995      Zr1005   2.461       .  S
O995       C1014   1.288       .  A
O996      Zr1004   2.491       .  S
O996       C1015   1.293       .  A
O997       C1014   1.272       .  A
O998      Zr1006   2.412       .  S
O998       C1013   1.280       .  A
O999      Zr1004   2.386       .  S
O999      Zr1006   2.378       .  S
O1000     Zr1005   2.368       .  S
O1000     Zr1006   2.380       .  S
O1000      H1035   0.964       .  S
O1001     Zr1004   2.386       .  S
O1001     Zr1021   2.450       .  S
O1001      H1038   0.966       .  S
O1002     Zr1005   2.385       .  S
O1002     Zr1021   2.432       .  S
Zr1003     O1028   2.437       .  S
Zr1003     O1022   2.430       .  S
Zr1003     O1030   2.404       .  S
Zr1003     O1018   2.406   1_655  S
Zr1003     O1009   2.384       .  S
Zr1003     O1010   2.428       .  S
Zr1003     O1011   2.379       .  S
Zr1003     O1012   2.377       .  S
Zr1004     O1023   2.434   1_655  S
Zr1004     O1016   2.435   1_655  S
Zr1004     O1017   2.421   1_655  S
Zr1004     O1010   2.440       .  S
Zr1004     O1011   2.420       .  S
Zr1005     O1007   2.434       .  S
Zr1005     O1029   2.440       .  S
Zr1005     O1031   2.415       .  S
Zr1005     O1009   2.390       .  S
Zr1005     O1012   2.387       .  S
Zr1006     O1032   2.436       .  S
Zr1006     O1033   2.438       .  S
Zr1006     O1008   2.439       .  S
Zr1006     O1009   2.380       .  S
Zr1006     O1010   2.388       .  S
O1007      H1044   0.990       .  S
O1008      H1039   0.990       .  S
O1008      H1053   0.990       .  S
O1010      H1036   0.964       .  S
O1011     Zr1021   2.352       .  S
O1012     Zr1021   2.368       .  S
O1012      H1037   0.965       .  S
C1013      C1696   1.507       .  S
C1014      C1706   1.472       .  S
C1015      C1739   1.486       .  S
O1016      H1052   0.991       .  S
O1017      C1019   1.274       .  A
O1018      C1019   1.269       .  A
C1019      C1686   1.471       .  S
O1020     Zr1021   2.437       .  S
O1020      H1049   0.990       .  S
Zr1021     O1024   2.436   1_655  S
Zr1021     O1025   2.435       .  S
Zr1021     O1026   2.533       .  S
O1022      C1027   1.284       .  A
O1023      H1040   0.990       .  S
O1023      H1055   0.990       .  S
O1024      H1041   0.990       .  S
O1025      H1045   0.990       .  S
O1025      H1054   0.990       .  S
O1026      C1027   1.303       .  A
C1027      C2009   1.516       .  S
O1028      H1047   0.990       .  S
O1028      H1051   0.990       .  S
O1029      H1043   0.990       .  S
O1029      H1050   0.990       .  S
O1030      C1034   1.280       .  A
O1031      C1034   1.282       .  A
O1032      H1042   0.989       .  S
O1033      H1046   0.990       .  S
C1034      C1839   1.456       .  S
Zr1057     O3282   2.429       .  S
Zr1057     O1063   2.443       .  S
Zr1057     O3283   2.413       .  S
Zr1057     O3284   2.438       .  S
Zr1057     O1065   2.379       .  S
Zr1057     O1066   2.386       .  S
Zr1057     O1067   2.400       .  S
Zr1057     O1068   2.383       .  S
O1058     Zr3281   2.437       .  S
O1058      H1114   0.988       .  S
O1058      H1122   0.990       .  S
O1059     Zr3281   2.430       .  S
O1059      C3303   1.283       .  A
O1060     Zr3281   2.402       .  S
O1060      C1081   1.277       .  A
O1061     Zr1071   2.406       .  S
O1061      C1080   1.281       .  A
O1062     Zr3294   2.495       .  S
O1062      C1081   1.295       .  A
O1063      C1080   1.288       .  A
O1064     Zr1072   2.475       .  S
O1064      C1079   1.293       .  A
O1065     Zr1070   2.410       .  S
O1065     Zr1072   2.371       .  S
O1066     Zr1071   2.382       .  S
O1066     Zr1072   2.370       .  S
O1066      H1101   0.964       .  S
O1067     Zr1070   2.415       .  S
O1067     Zr1087   2.397       .  S
O1067      H3328   0.966       .  S
O1068     Zr1071   2.403       .  S
O1068     Zr1087   2.358       .  S
Zr1069     O1094   2.442       .  S
Zr1069     O1088   2.454       .  S
Zr1069     O1096   2.420       .  S
Zr1069     O1084   2.383       .  S
Zr1069     O1075   2.399       .  S
Zr1069     O1076   2.410       .  S
Zr1069     O1077   2.378       .  S
Zr1069     O1078   2.364       .  S
Zr1070     O1089   2.439       .  S
Zr1070     O1082   2.434       .  S
Zr1070     O1083   2.501       .  S
Zr1070     O3286   2.469       .  S
Zr1070     O1076   2.401       .  S
Zr1070     O1077   2.385       .  S
Zr1071     O1073   2.436       .  S
Zr1071     O1095   2.437       .  S
Zr1071     O1097   2.450       .  S
Zr1071     O1075   2.389       .  S
Zr1071     O1078   2.375       .  S
Zr1072     O1098   2.435       .  S
Zr1072     O1099   2.436       .  S
Zr1072     O1074   2.435       .  S
Zr1072     O1075   2.415       .  S
Zr1072     O1076   2.420       .  S
O1073      H1110   0.990       .  S
O1074      H1105   0.990       .  S
O1074      H1119   0.990       .  S
O1076      H1102   0.966       .  S
O1077     Zr1087   2.379       .  S
O1078     Zr1087   2.382       .  S
O1078      H1103   0.965       .  S
C1079      O3283   1.279       .  A
C1079      C4040   1.482       .  S
C1080      C1779   1.470       .  S
C1081      C1147   1.485       .  S
O1082      H3342   0.990       .  S
O1083      C1085   1.297       .  A
O1084      C1085   1.277       .  A
C1085      C1699   1.496       .  S
O1086     Zr1087   2.436       .  S
O1086      H1115   0.990       .  S
Zr1087     O1090   2.435       .  S
Zr1087     O1091   2.437       .  S
Zr1087     O1092   2.383       .  S
O1088      C1093   1.285       .  A
O1089      H3330   0.990       .  S
O1089      H3345   0.990       .  S
O1090      H1107   0.990       .  S
O1091      H1111   0.990       .  S
O1091      H1120   0.990       .  S
O1092      C1093   1.270       .  A
C1093      C1726   1.456       .  S
O1094      H1113   0.991       .  S
O1094      H1117   0.990       .  S
O1095      H1109   0.990       .  S
O1095      H1116   0.990       .  S
O1096      C1100   1.284       .  A
O1097      C1100   1.283       .  A
O1098      H1108   0.990       .  S
O1099      H1112   0.990       .  S
C1100      C1166   1.476       .  S
H1104      O3291   0.966       .  S
H1106      O3313   0.990       .  S
H1118      O3306   0.990       .  S
H1121      O3313   0.990       .  S
Zr1123     O1124   2.436       .  S
Zr1123     O1125   2.442       .  S
Zr1123     O1126   2.434       .  S
Zr1123     O1129   2.444       .  S
Zr1123     O1131   2.383       .  S
Zr1123     O1132   2.385       .  S
Zr1123     O1133   2.409       .  S
Zr1123     O1134   2.389       .  S
O1124      H1180   0.990       .  S
O1124      H1188   0.990       .  S
O1125      C1145   1.283       .  A
O1126      C1147   1.286       .  A
O1127     Zr1137   2.420       .  S
O1127      C1146   1.282       .  A
O1128     Zr1136   2.472       .  S
O1128      C1147   1.288       .  A
O1129      C1146   1.288       .  A
O1130     Zr1138   2.465       .  S
O1130      C1145   1.290       .  A
O1131     Zr1136   2.427       .  S
O1131     Zr1138   2.382       .  S
O1132     Zr1137   2.408       .  S
O1132     Zr1138   2.372       .  S
O1132      H1167   0.966       .  S
O1133     Zr1136   2.423       .  S
O1133     Zr1153   2.395       .  S
O1133      H1170   0.966       .  S
O1134     Zr1137   2.397       .  S
O1134     Zr1153   2.362       .  S
Zr1135     O1160   2.446       .  S
Zr1135     O1154   2.425       .  S
Zr1135     O1162   2.374       .  S
Zr1135     O1150   2.357       .  S
Zr1135     O1141   2.390       .  S
Zr1135     O1142   2.395       .  S
Zr1135     O1143   2.370       .  S
Zr1135     O1144   2.367       .  S
Zr1136     O1155   2.438       .  S
Zr1136     O1148   2.436       .  S
Zr1136     O1149   2.531       .  S
Zr1136     O1142   2.397       .  S
Zr1136     O1143   2.376       .  S
Zr1137     O1139   2.434       .  S
Zr1137     O1161   2.436       .  S
Zr1137     O1163   2.487       .  S
Zr1137     O1141   2.387       .  S
Zr1137     O1144   2.377       .  S
Zr1138     O1164   2.435       .  S
Zr1138     O1165   2.436       .  S
Zr1138     O1140   2.438       .  S
Zr1138     O1141   2.409       .  S
Zr1138     O1142   2.416       .  S
O1139      H1176   0.990       .  S
O1140      H1171   0.990       .  S
O1140      H1185   0.990       .  S
O1142      H1168   0.966       .  S
O1143     Zr1153   2.379       .  S
O1144     Zr1153   2.374       .  S
O1144      H1169   0.966       .  S
C1145      C1769   1.500       .  S
C1146      C1796   1.465       .  S
O1148      H1184   0.990       .  S
O1149      C1151   1.304       .  A
O1150      C1151   1.271       .  A
C1151      C1749   1.506       .  S
O1152     Zr1153   2.433       .  S
O1152      H1181   0.990       .  S
Zr1153     O1156   2.436       .  S
Zr1153     O1157   2.438       .  S
Zr1153     O1158   2.400       .  S
O1154      C1159   1.283       .  A
O1155      H1172   0.990       .  S
O1155      H1187   0.990       .  S
O1156      H1173   0.990       .  S
O1157      H1177   0.990       .  S
O1157      H1186   0.990       .  S
O1158      C1159   1.276       .  A
C1159      C1709   1.454       .  S
O1160      H1179   0.990       .  S
O1160      H1183   0.991       .  S
O1161      H1175   0.990       .  S
O1161      H1182   0.991       .  S
O1162      C1166   1.275       .  A
O1163      C1166   1.292       .  A
O1164      H1174   0.990       .  S
O1165      H1178   0.990       .  S
Zr1189     O1190   2.436       .  S
Zr1189     O1191   2.409       .  S
Zr1189     O1192   2.425       .  S
Zr1189     O1195   2.429       .  S
Zr1189     O1197   2.378       .  S
Zr1189     O1198   2.382       .  S
Zr1189     O1199   2.410       .  S
Zr1189     O1200   2.392       .  S
O1190      H1246   0.990       .  S
O1190      H1254   0.990       .  S
O1191      C1211   1.282       .  A
O1192      C1213   1.270       .  A
O1193     Zr1203   2.419   1_565  S
O1193      C1212   1.283       .  A
O1194     Zr1202   2.391       .  S
O1194      C1213   1.266       .  A
O1195      C1212   1.285   1_545  A
O1196     Zr1204   2.546       .  S
O1196      C1211   1.304       .  A
O1197     Zr1202   2.405       .  S
O1197     Zr1204   2.350       .  S
O1198     Zr1203   2.405       .  S
O1198     Zr1204   2.372       .  S
O1198      H1233   0.966       .  S
O1199     Zr1202   2.445       .  S
O1199     Zr1219   2.383       .  S
O1199      H1236   0.963       .  S
O1200     Zr1203   2.389       .  S
O1200     Zr1219   2.364       .  S
Zr1201     O1226   2.438       .  S
Zr1201     O1220   2.490       .  S
Zr1201     O1228   2.434       .  S
Zr1201     O1216   2.411       .  S
Zr1201     O1207   2.426       .  S
Zr1201     O1208   2.431       .  S
Zr1201     O1209   2.367       .  S
Zr1201     O1210   2.380       .  S
Zr1202     O1221   2.442       .  S
Zr1202     O1214   2.434       .  S
Zr1202     O1215   2.447       .  S
Zr1202     O1208   2.397       .  S
Zr1202     O1209   2.370       .  S
Zr1203     O1205   2.439   1_545  S
Zr1203     O1227   2.435   1_545  S
Zr1203     O1229   2.459       .  S
Zr1203     O1207   2.378       .  S
Zr1203     O1210   2.393       .  S
Zr1204     O1230   2.438   1_545  S
Zr1204     O1231   2.436       .  S
Zr1204     O1206   2.435       .  S
Zr1204     O1207   2.444       .  S
Zr1204     O1208   2.449       .  S
O1205      H1242   0.990       .  S
O1206      H1237   0.990       .  S
O1206      H1251   0.990       .  S
O1208      H1234   0.966       .  S
O1209     Zr1219   2.371       .  S
O1210     Zr1219   2.371       .  S
O1210      H1235   0.964       .  S
C1211      C1959   1.534       .  S
C1212      C2126   1.461       .  S
C1213      C1756   1.441       .  S
O1214      H1250   0.990       .  S
O1215      C1217   1.283       .  A
O1216      C1217   1.277       .  A
C1217      C1659   1.488       .  S
O1218     Zr1219   2.436       .  S
O1218      H1247   0.990       .  S
Zr1219     O1222   2.435       .  S
Zr1219     O1223   2.444       .  S
Zr1219     O1224   2.390       .  S
O1220      C1225   1.294       .  A
O1221      H1238   0.990       .  S
O1221      H1253   0.991       .  S
O1222      H1239   0.990       .  S
O1223      H1243   0.990       .  S
O1223      H1252   0.990       .  S
O1224      C1225   1.276       .  A
C1225      C1679   1.478       .  S
O1226      H1245   0.990       .  S
O1226      H1249   0.990       .  S
O1227      H1241   0.990       .  S
O1227      H1248   0.990       .  S
O1228      C1232   1.285       .  A
O1229      C1232   1.289       .  A
O1230      H1240   0.990       .  S
O1231      H1244   0.990       .  S
C1232      C1669   1.486       .  S
Zr1255     O1256   2.442       .  S
Zr1255     O1257   2.423       .  S
Zr1255     O1258   2.455       .  S
Zr1255     O1261   2.456       .  S
Zr1255     O1263   2.386       .  S
Zr1255     O1264   2.389       .  S
Zr1255     O1265   2.417       .  S
Zr1255     O1266   2.373       .  S
O1256      H1312   0.989       .  S
O1256      H1320   0.990       .  S
O1257      C1277   1.279       .  A
O1258      C1279   1.276       .  A
O1259     Zr1269   2.430       .  S
O1259      C1278   1.283       .  A
O1260     Zr1268   2.420       .  S
O1260      C1279   1.273       .  A
O1261      C1278   1.289       .  A
O1262     Zr1270   2.521       .  S
O1262      C1277   1.297       .  A
O1263     Zr1268   2.411       .  S
O1263     Zr1270   2.352       .  S
O1264     Zr1269   2.418       .  S
O1264     Zr1270   2.381       .  S
O1264      H1299   0.966       .  S
O1265     Zr1268   2.432       .  S
O1265     Zr1285   2.366       .  S
O1265      H1302   0.954       .  S
O1266     Zr1269   2.371       .  S
O1266     Zr1285   2.345       .  S
Zr1267     O1292   2.438       .  S
Zr1267     O1286   2.509       .  S
Zr1267     O1294   2.413       .  S
Zr1267     O1282   2.403       .  S
Zr1267     O1273   2.426       .  S
Zr1267     O1274   2.429       .  S
Zr1267     O1275   2.368       .  S
Zr1267     O1276   2.367       .  S
Zr1268     O1287   2.437       .  S
Zr1268     O1280   2.435       .  S
Zr1268     O1281   2.443       .  S
Zr1268     O1274   2.396       .  S
Zr1268     O1275   2.394       .  S
Zr1269     O1271   2.438   1_545  S
Zr1269     O1293   2.438   1_545  S
Zr1269     O1295   2.461       .  S
Zr1269     O1273   2.375       .  S
Zr1269     O1276   2.401       .  S
Zr1270     O1296   2.438   1_545  S
Zr1270     O1297   2.434       .  S
Zr1270     O1272   2.440       .  S
Zr1270     O1273   2.445       .  S
Zr1270     O1274   2.434       .  S
O1271      H1308   0.990       .  S
O1272      H1303   0.990       .  S
O1272      H1317   0.989       .  S
O1274      H1300   0.964       .  S
O1275     Zr1285   2.385       .  S
O1276     Zr1285   2.380       .  S
O1276      H1301   0.965       .  S
C1277      C1919   1.514       .  S
C1278      C2069   1.472       .  S
C1279      C1719   1.471       .  S
O1280      H1316   0.990       .  S
O1281      C1283   1.286       .  A
O1282      C1283   1.278       .  A
C1283      C1646   1.469       .  S
O1284     Zr1285   2.440       .  S
O1284      H1313   0.990       .  S
Zr1285     O1288   2.435       .  S
Zr1285     O1289   2.441       .  S
Zr1285     O1290   2.374       .  S
O1286      C1291   1.298       .  A
O1287      H1304   0.990       .  S
O1287      H1319   0.990       .  S
O1288      H1305   0.990       .  S
O1289      H1309   0.989       .  S
O1289      H1318   0.990       .  S
O1290      C1291   1.274       .  A
C1291      C1636   1.506       .  S
O1292      H1311   0.989       .  S
O1292      H1315   0.990       .  S
O1293      H1307   0.990       .  S
O1293      H1314   0.990       .  S
O1294      C1298   1.279       .  A
O1295      C1298   1.287       .  A
O1296      H1306   0.990       .  S
O1297      H1310   0.990       .  S
C1298      C1666   1.475       .  S
Zr1321     O1322   2.429       .  S
Zr1321     O1323   2.436       .  S
Zr1321     O1324   2.433       .  S
Zr1321     O1327   2.458       .  S
Zr1321     O1329   2.379       .  S
Zr1321     O1330   2.384       .  S
Zr1321     O1331   2.416       .  S
Zr1321     O1332   2.374       .  S
O1322      H1378   0.989       .  S
O1322      H3610   0.989       .  S
O1323      C1343   1.286       .  A
O1324      C1345   1.274       .  A
O1325     Zr1335   2.421       .  S
O1325      C1344   1.284       .  A
O1326     Zr1334   2.443       .  S
O1326      C1345   1.278       .  A
O1327      C1344   1.293       .  A
O1328     Zr1336   2.510       .  S
O1328      C1343   1.296       .  A
O1329     Zr1334   2.399       .  S
O1329     Zr1336   2.363       .  S
O1330     Zr1335   2.413       .  S
O1330     Zr1336   2.384       .  S
O1330      H1365   0.966       .  S
O1331     Zr1334   2.435       .  S
O1331     Zr1351   2.371       .  S
O1331      H1368   0.961       .  S
O1332     Zr1335   2.381       .  S
O1332     Zr1351   2.353       .  S
Zr1333     O1358   2.438       .  S
Zr1333     O1352   2.475       .  S
Zr1333     O1360   2.438       .  S
Zr1333     O1348   2.402       .  S
Zr1333     O1339   2.415       .  S
Zr1333     O1340   2.438       .  S
Zr1333     O1341   2.398       .  S
Zr1333     O1342   2.389       .  S
Zr1334     O1353   2.436       .  S
Zr1334     O1346   2.434       .  S
Zr1334     O1347   2.477       .  S
Zr1334     O1340   2.404       .  S
Zr1334     O1341   2.373       .  S
Zr1335     O1337   2.439       .  S
Zr1335     O1359   2.437       .  S
Zr1335     O1361   2.467       .  S
Zr1335     O1339   2.378       .  S
Zr1335     O1342   2.385       .  S
Zr1336     O1362   2.440       .  S
Zr1336     O1363   2.436       .  S
Zr1336     O1338   2.438       .  S
Zr1336     O1339   2.440       .  S
Zr1336     O1340   2.440       .  S
O1337      H1374   0.990       .  S
O1338      H1369   0.991       .  S
O1338      H1383   0.990       .  S
O1340      H1366   0.966       .  S
O1341     Zr1351   2.373       .  S
O1342     Zr1351   2.382       .  S
O1342      H1367   0.964       .  S
C1343      C1869   1.531       .  S
C1344      C4410   1.479       .  S
C1345      C1786   1.471       .  S
O1346      H1382   0.990       .  S
O1347      C1349   1.292       .  A
O1348      C1349   1.280       .  A
C1349      C1606   1.495       .  S
O1350     Zr3575   2.437       .  S
O1350      H1379   0.990   1_556  S
Zr1351     O1354   2.435       .  S
Zr1351     O3574   2.439       .  S
Zr1351     O3579   2.438       .  S
Zr1351     O1356   2.387       .  S
O1352      C1357   1.279       .  A
O1353      H1370   0.990       .  S
O1353      H1385   0.991       .  S
O1354      H3595   0.991       .  S
O1355     Zr3575   2.439   1_554  S
O1355      H1375   0.990       .  S
O1355      H1384   0.989       .  S
O1356      C1357   1.265       .  A
C1357      C1629   1.484       .  S
O1358      H1377   0.990       .  S
O1358      H1381   0.991       .  S
O1359      H1373   0.990       .  S
O1359      H1380   0.990       .  S
O1360      C1364   1.286       .  A
O1361      C1364   1.289       .  A
O1362      H1372   0.990       .  S
O1363      H1376   0.990       .  S
C1364      C1616   1.492       .  S
H1371      O3578   0.990       .  S
H1386      O3546   0.991       .  S
Zr1387     O1388   2.454       .  S
Zr1387     O1389   2.449       .  S
Zr1387     O1390   2.414       .  S
Zr1387     O1393   2.442       .  S
Zr1387     O1395   2.376       .  S
Zr1387     O1396   2.395       .  S
Zr1387     O1397   2.446       .  S
Zr1387     O1398   2.403       .  S
O1388      H1444   0.990       .  S
O1388      H1452   0.990       .  S
O1389      C1409   1.283       .  A
O1390      C1411   1.277       .  A
O1391     Zr1401   2.426       .  S
O1391      C1410   1.276       .  A
O1392     Zr1400   2.425       .  S
O1392      C1411   1.275       .  A
O1393      C1410   1.276       .  A
O1394     Zr1402   2.516       .  S
O1394      C3633   1.297       .  A
O1395     Zr1400   2.408       .  S
O1395     Zr3626   2.355       .  S
O1396     Zr1401   2.435       .  S
O1396     Zr3626   2.379       .  S
O1396      H1431   0.966       .  S
O1397     Zr1400   2.426       .  S
O1397     Zr1417   2.400       .  S
O1397      H1434   0.963       .  S
O1398     Zr1401   2.399       .  S
O1398     Zr1417   2.366       .  S
Zr1399     O3648   2.443       .  S
Zr1399     O1418   2.511       .  S
Zr1399     O1426   2.454       .  S
Zr1399     O3638   2.408       .  S
Zr1399     O1405   2.429       .  S
Zr1399     O1407   2.363       .  S
Zr1399     O1408   2.372       .  S
Zr1399     O3630   2.443       .  S
Zr1400     O1419   2.435       .  S
Zr1400     O3636   2.435       .  S
Zr1400     O3637   2.453       .  S
Zr1400     O1407   2.382       .  S
Zr1400     O3630   2.412       .  S
Zr1401     O1403   2.439       .  S
Zr1401     O1425   2.437       .  S
Zr1401     O1427   2.466       .  S
Zr1401     O1405   2.392       .  S
Zr1401     O1408   2.408       .  S
Zr1402     O1428   2.438       .  S
Zr1402     O1429   2.435       .  S
Zr1402     O1404   2.437       .  S
Zr1402     O1406   2.416       .  S
Zr1402     O3619   2.345       .  S
Zr1402     O3620   2.382       .  S
Zr1402     O3629   2.452       .  S
O1403      H1440   0.990       .  S
O1404      H1435   0.990       .  S
O1404      H1449   0.990       .  S
O1405     Zr3626   2.451       .  S
O1406     Zr3623   2.438   1_554  S
O1406     Zr3624   2.400   1_554  S
O1406      H1432   0.966       .  S
O1407     Zr1417   2.345       .  S
O1408     Zr1417   2.376       .  S
O1408      H1433   0.961       .  S
C1409      O3618   1.295       .  A
C1409      C1829   1.516       .  S
C1410      C2026   1.458       .  S
C1411      C1689   1.473       .  S
O1412     Zr3624   2.435   1_554  S
O1412      H1448   0.990       .  S
O1413     Zr3624   2.455       .  S
O1413      C1415   1.285       .  A
O1414     Zr3623   2.401   1_554  S
O1414      C1415   1.274   1_554  A
C1415      C1596   1.477       .  S
O1416     Zr1417   2.435       .  S
O1416      H1445   0.990       .  S
Zr1417     O1420   2.442       .  S
Zr1417     O1421   2.446       .  S
Zr1417     O1422   2.409       .  S
O1418      C1423   1.297       .  A
O1419      H1436   0.988       .  S
O1419      H1451   0.988       .  S
O1420      H1437   0.990       .  S
O1421      H1441   0.990       .  S
O1421      H1450   0.990       .  S
O1422      C1423   1.278       .  A
C1423      C1586   1.504       .  S
O1424     Zr3623   2.437   1_554  S
O1424      H1443   0.990       .  S
O1424      H1447   0.989       .  S
O1425      H1439   0.990       .  S
O1425      H1446   0.990       .  S
O1426      C1430   1.289       .  A
O1427      C1430   1.290       .  A
O1428      H1438   0.990       .  S
O1429      H1442   0.990       .  S
C1430      C1619   1.496       .  S
Zr1453     O1454   2.442       .  S
Zr1453     O1455   2.454       .  S
Zr1453     O1456   2.379       .  S
Zr1453     O1459   2.377       .  S
Zr1453     O1461   2.383       .  S
Zr1453     O1462   2.391       .  S
Zr1453     O1463   2.412       .  S
Zr1453     O1464   2.405       .  S
O1454      H1510   0.990       .  S
O1454      H1518   0.990       .  S
O1455      C1475   1.280       .  A
O1456      C1477   1.273       .  A
O1457     Zr1467   2.511       .  S
O1457      C1476   1.297       .  A
O1458     Zr1466   2.494       .  S
O1458      C1477   1.294       .  A
O1459      C1476   1.272       .  A
O1460     Zr1468   2.395       .  S
O1460      C1475   1.268       .  A
O1461     Zr1466   2.378       .  S
O1461     Zr1468   2.386       .  S
O1462     Zr1467   2.376       .  S
O1462     Zr1468   2.383       .  S
O1462      H1497   0.965       .  S
O1463     Zr1466   2.394       .  S
O1463     Zr1483   2.422       .  S
O1463      H1500   0.966       .  S
O1464     Zr1467   2.388       .  S
O1464     Zr1483   2.421       .  S
Zr1465     O1490   2.442       .  S
Zr1465     O1484   2.425       .  S
Zr1465     O1492   2.446       .  S
Zr1465     O1480   2.437       .  S
Zr1465     O1471   2.395       .  S
Zr1465     O1472   2.406       .  S
Zr1465     O1473   2.387       .  S
Zr1465     O1474   2.384       .  S
Zr1466     O1485   2.437       .  S
Zr1466     O1478   2.435       .  S
Zr1466     O1479   2.441       .  S
Zr1466     O1472   2.415       .  S
Zr1466     O1473   2.409       .  S
Zr1467     O1469   2.433       .  S
Zr1467     O1491   2.435       .  S
Zr1467     O1493   2.447       .  S
Zr1467     O1471   2.415       .  S
Zr1467     O1474   2.415       .  S
Zr1468     O1494   2.435       .  S
Zr1468     O1495   2.435       .  S
Zr1468     O1470   2.438       .  S
Zr1468     O1471   2.383       .  S
Zr1468     O1472   2.371       .  S
O1469      H1506   0.990       .  S
O1470      H1501   0.990       .  S
O1470      H1515   0.990       .  S
O1472      H1498   0.966       .  S
O1473     Zr1483   2.364       .  S
O1474     Zr1483   2.367       .  S
O1474      H1499   0.966       .  S
C1475      C1656   1.483       .  S
C1476      C1639   1.504       .  S
C1477      C1562   1.484       .  S
O1478      H1514   0.990       .  S
O1479      C1481   1.287       .  A
O1480      C1481   1.287       .  A
C1481      C1609   1.470       .  S
O1482     Zr1483   2.439       .  S
O1482      H1511   0.990       .  S
Zr1483     O1486   2.437       .  S
Zr1483     O1487   2.438       .  S
Zr1483     O1488   2.490       .  S
O1484      C1489   1.280       .  A
O1485      H1502   0.990       .  S
O1485      H1517   0.990       .  S
O1486      H1503   0.990       .  S
O1487      H1507   0.990       .  S
O1487      H1516   0.990       .  S
O1488      C1489   1.296       .  A
C1489      C1589   1.516       .  S
O1490      H1509   0.990       .  S
O1490      H1513   0.990       .  S
O1491      H1505   0.990       .  S
O1491      H1512   0.990       .  S
O1492      C1496   1.291       .  A
O1493      C1496   1.286       .  A
O1494      H1504   0.990       .  S
O1495      H1508   0.990       .  S
C1496      C1543   1.482       .  S
Zr1519     O3744   2.441       .  S
Zr1519     O1521   2.438       .  S
Zr1519     O1525   2.396   1_556  S
Zr1519     O3746   2.377       .  S
Zr1519     O1527   2.374       .  S
Zr1519     O1528   2.395   1_556  S
Zr1519     O1529   2.401   1_556  S
Zr1519     O1530   2.395   1_556  S
O1520     Zr3743   2.442       .  S
O1520      H1576   0.990       .  S
O1520      H1584   0.991       .  S
O1521      C1541   1.281       .  A
O1522     Zr3743   2.400       .  S
O1522      C1543   1.274       .  A
O1523     Zr1533   2.465       .  S
O1523      C1542   1.284       .  A
O1524     Zr3756   2.482       .  S
O1524      C1543   1.291       .  A
O1525      C1542   1.273       .  A
O1526     Zr1534   2.408   1_556  S
O1526      C1541   1.270       .  A
O1527     Zr1532   2.368   1_556  S
O1527     Zr1534   2.371   1_556  S
O1528     Zr1533   2.394       .  S
O1528     Zr1534   2.374       .  S
O1528      H1563   0.965       .  S
O1529     Zr1532   2.394       .  S
O1529     Zr1549   2.411       .  S
O1529      H1566   0.966   1_554  S
O1530     Zr1533   2.400       .  S
O1530     Zr1549   2.407       .  S
Zr1531     O1556   2.438       .  S
Zr1531     O1550   2.423       .  S
Zr1531     O1558   2.446       .  S
Zr1531     O1546   2.425       .  S
Zr1531     O1537   2.390       .  S
Zr1531     O1538   2.413       .  S
Zr1531     O1539   2.389       .  S
Zr1531     O1540   2.376       .  S
Zr1532     O1551   2.435   1_554  S
Zr1532     O1544   2.434   1_554  S
Zr1532     O1545   2.436       .  S
Zr1532     O3748   2.505   1_554  S
Zr1532     O1538   2.423       .  S
Zr1532     O1539   2.413       .  S
Zr1533     O1535   2.435       .  S
Zr1533     O1557   2.435       .  S
Zr1533     O1559   2.439       .  S
Zr1533     O1537   2.404       .  S
Zr1533     O1540   2.412       .  S
Zr1534     O1560   2.436       .  S
Zr1534     O1561   2.435       .  S
Zr1534     O1536   2.436       .  S
Zr1534     O1537   2.396       .  S
Zr1534     O1538   2.368       .  S
O1535      H1572   0.990       .  S
O1536      H1567   0.990       .  S
O1536      H1581   0.990       .  S
O1538      H1564   0.965       .  S
O1539     Zr1549   2.371       .  S
O1540     Zr1549   2.377       .  S
O1540      H1565   0.966       .  S
C1541      C1599   1.480       .  S
C1542      C1626   1.493       .  S
O1544      H1580   0.990       .  S
O1545      C1547   1.285       .  A
O1546      C1547   1.284       .  A
C1547      C1649   1.464       .  S
O1548     Zr1549   2.437       .  S
O1548      H1577   0.990   1_554  S
Zr1549     O1552   2.436       .  S
Zr1549     O1553   2.437       .  S
Zr1549     O1554   2.461       .  S
O1550      C1555   1.280       .  A
O1551      H1568   0.990       .  S
O1551      H1583   0.990       .  S
O1552      H1569   0.990       .  S
O1553      H1573   0.990       .  S
O1553      H1582   0.990       .  S
O1554      C1555   1.289       .  A
C1555      C1676   1.489       .  S
O1556      H1575   0.989       .  S
O1556      H1579   0.990       .  S
O1557      H1571   0.990       .  S
O1557      H1578   0.990       .  S
O1558      C1562   1.291       .  A
O1559      C1562   1.283       .  A
O1560      H1570   0.990       .  S
O1561      H1574   0.990       .  S
C1585      C1586   1.403       .  A
C1585      C1590   1.414       .  A
C1585      H1592   1.083       .  S
C1586      C1587   1.418       .  A
C1587      C1588   1.405       .  A
C1587     Br1594   1.922       .  S
C1588      C1589   1.406       .  A
C1588      H1593   1.083       .  S
C1589      C1590   1.429       .  A
C1590     Br1591   1.922       .  S
C1595      C1600   1.381       .  A
C1595      C3820   1.405       .  A
C1595      H1602   1.081       .  S
C1596      C1597   1.407       .  A
C1596      C3819   1.402       .  A
C1597      C1598   1.404       .  A
C1597     Br1604   1.917       .  S
C1598      C1599   1.414       .  A
C1598      H1603   1.083       .  S
C1599      C3824   1.405       .  A
C1600      C3823   1.403       .  A
C1600     Br1601   1.919       .  S
C1605      C1606   1.414       .  A
C1605      C1610   1.396       .  A
C1605      H1612   1.083       .  S
C1606      C1607   1.417       .  A
C1607      C1608   1.403       .  A
C1607     Br1614   1.914       .  S
C1608      C1609   1.401       .  A
C1608      H1613   1.084       .  S
C1609      C1610   1.400       .  A
C1610     Br1611   1.919       .  S
C1615      C1616   1.403       .  A
C1615      C1620   1.405       .  A
C1615      H1622   1.084       .  S
C1616      C1617   1.415       .  A
C1617      C1618   1.407       .  A
C1617     Br1624   1.919       .  S
C1618      C1619   1.405       .  A
C1618      H3847   1.083       .  S
C1619      C1620   1.419       .  A
C1620     Br1621   1.919       .  S
H1623      C3842   1.083       .  S
C1625      C1626   1.411   1_556  A
C1625      C3854   1.388       .  A
C1625      H1632   1.076       .  S
C1626      C1627   1.415       .  A
C1627      C1628   1.408   1_554  A
C1627     Br1634   1.919       .  S
C1628      C3853   1.409       .  A
C1628      H1633   1.081   1_556  S
C1629      C1630   1.404       .  A
C1629      C3852   1.409       .  A
C1630      C3849   1.390       .  A
C1630     Br1631   1.923       .  S
C1635      C1636   1.420       .  A
C1635      C1640   1.406       .  A
C1635      H1642   1.083       .  S
C1636      C1637   1.410       .  A
C1637      C1638   1.405       .  A
C1637     Br1644   1.922       .  S
C1638      C1639   1.419       .  A
C1638      H1643   1.083       .  S
C1639      C1640   1.406       .  A
C1640     Br1641   1.918       .  S
C1645      C1646   1.400       .  A
C1645      C1650   1.394       .  A
C1645      H1652   1.084       .  S
C1646      C1647   1.413       .  A
C1647      C1648   1.396       .  A
C1647     Br1654   1.917       .  S
C1648      C1649   1.398       .  A
C1648      H1653   1.084       .  S
C1649      C1650   1.409       .  A
C1650     Br1651   1.918       .  S
C1655      C1656   1.406       .  A
C1655      C1660   1.398       .  A
C1655      H1662   1.083       .  S
C1656      C1657   1.411       .  A
C1657      C1658   1.396       .  A
C1657     Br1664   1.914       .  S
C1658      C1659   1.408       .  A
C1658      H1663   1.083       .  S
C1659      C1660   1.413       .  A
C1660     Br1661   1.918       .  S
C1665      C1666   1.402       .  A
C1665      C1670   1.402       .  A
C1665      H1672   1.084       .  S
C1666      C1667   1.408       .  A
C1667      C1668   1.403       .  A
C1667     Br1674   1.919       .  S
C1668      C1669   1.407       .  A
C1668      H1673   1.083       .  S
C1669      C1670   1.415       .  A
C1670     Br1671   1.920       .  S
C1675      C1676   1.411       .  A
C1675      C1680   1.408       .  A
C1675      H1682   1.083       .  S
C1676      C1677   1.408       .  A
C1677      C1678   1.398       .  A
C1677     Br1684   1.919       .  S
C1678      C1679   1.405       .  A
C1678      H1683   1.083       .  S
C1679      C1680   1.406       .  A
C1680     Br1681   1.917       .  S
C1685      C1686   1.406       .  A
C1685      C1690   1.392       .  A
C1685      H1692   1.084       .  S
C1686      C1687   1.414       .  A
C1687      C1688   1.392       .  A
C1687     Br1694   1.924       .  S
C1688      C1689   1.403       .  A
C1688      H1693   1.084       .  S
C1689      C1690   1.409       .  A
C1690     Br1691   1.920       .  S
C1695      C1696   1.419       .  A
C1695      C1700   1.409       .  A
C1695      H1702   1.083       .  S
C1696      C1697   1.414       .  A
C1697      C1698   1.401       .  A
C1697     Br1704   1.918       .  S
C1698      C1699   1.411       .  A
C1698      H1703   1.084       .  S
C1699      C1700   1.406       .  A
C1700     Br1701   1.917       .  S
C1705      C1706   1.406       .  A
C1705      C1710   1.399       .  A
C1705      H1712   1.083       .  S
C1706      C1707   1.417       .  A
C1707      C1708   1.386       .  A
C1707     Br1714   1.921       .  S
C1708      C1709   1.394       .  A
C1708      H1713   1.085       .  S
C1709      C1710   1.406       .  A
C1710     Br1711   1.916       .  S
C1715      C1716   1.407   1_655  A
C1715      C1720   1.390       .  A
C1715      H1722   1.075       .  S
C1716      C1717   1.419       .  A
C1717      C1718   1.396       .  A
C1717     Br1724   1.922       .  S
C1718      C1719   1.404       .  A
C1718      H1723   1.083       .  S
C1719      C1720   1.397   1_455  A
C1720     Br1721   1.920       .  S
C1725      C1726   1.401       .  A
C1725      C1730   1.400       .  A
C1725      H1732   1.084       .  S
C1726      C1727   1.402       .  A
C1727      C1728   1.387       .  A
C1727     Br1734   1.919       .  S
C1728      C1729   1.407       .  A
C1728      H1733   1.083       .  S
C1729      C1730   1.418       .  A
C1730     Br1731   1.920       .  S
C1735      C1736   1.411       .  A
C1735      C1740   1.411       .  A
C1735      H1742   1.083       .  S
C1736      C1737   1.414       .  A
C1737      C1738   1.404       .  A
C1737     Br1744   1.917       .  S
C1738      C1739   1.403       .  A
C1738      H1743   1.084       .  S
C1739      C1740   1.410       .  A
C1740     Br1741   1.918       .  S
C1745      C1746   1.423       .  A
C1745      C1750   1.408       .  A
C1745      H1752   1.081       .  S
C1746      C1747   1.407       .  A
C1747      C1748   1.409       .  A
C1747     Br1754   1.914       .  S
C1748      C1749   1.421       .  A
C1748      H1753   1.084       .  S
C1749      C1750   1.404       .  A
C1750     Br1751   1.920       .  S
C1755      C1756   1.401       .  A
C1755      C1760   1.383       .  A
C1755      H1762   1.082       .  S
C1756      C1757   1.400       .  A
C1757      C1758   1.386       .  A
C1757     Br1764   1.918       .  S
C1758      C1759   1.402       .  A
C1758      H1763   1.084       .  S
C1759      C1760   1.401       .  A
C1760     Br1761   1.921       .  S
C1765      C1766   1.415       .  A
C1765      C1770   1.399       .  A
C1765      H1772   1.083       .  S
C1766      C1767   1.415       .  A
C1767      C1768   1.413       .  A
C1767     Br1774   1.914       .  S
C1768      C1769   1.410       .  A
C1768      H1773   1.079       .  S
C1769      C1770   1.408       .  A
C1770     Br1771   1.920       .  S
C1775      C1776   1.404       .  A
C1775      C1780   1.395       .  A
C1775      H4006   1.083       .  S
C1776      C1777   1.409       .  A
C1777      C1778   1.396       .  A
C1777     Br1784   1.921       .  S
C1778      C1779   1.405       .  A
C1778      H1783   1.084       .  S
C1779      C1780   1.411       .  A
C1780     Br4005   1.921       .  S
Br1781     C4004   1.917       .  S
H1782      C3999   1.084       .  S
C1785      C1786   1.401       .  A
C1785      C4014   1.394       .  A
C1785      H1792   1.084       .  S
C1786      C1787   1.411       .  A
C1787      C4012   1.401       .  A
C1787     Br1794   1.920       .  S
C1788      C1789   1.408       .  A
C1788      C4011   1.394       .  A
C1788      H1793   1.083       .  S
C1789      C1790   1.411       .  A
C1790      C4009   1.399       .  A
C1790     Br1791   1.914       .  S
C1795      C1796   1.407       .  A
C1795      C1800   1.404       .  A
C1795      H1802   1.083       .  S
C1796      C1797   1.401       .  A
C1797      C1798   1.391       .  A
C1797     Br1804   1.923       .  S
C1798      C1799   1.408       .  A
C1798      H1803   1.080       .  S
C1799      C1800   1.407       .  A
C1800     Br1801   1.916       .  S
C1805      C1806   1.409       .  A
C1805      C1810   1.408       .  A
C1805      H1812   1.084       .  S
C1806      C1807   1.412       .  A
C1807      C1808   1.417       .  A
C1807     Br1814   1.918       .  S
C1808      C1809   1.416       .  A
C1808      H1813   1.083       .  S
C1809      C1810   1.416       .  A
C1810     Br1811   1.919       .  S
C1815      C1816   1.400       .  A
C1815      C1820   1.399       .  A
C1815      H4046   1.083       .  S
C1816      C3303   1.480       .  S
C1816      C1817   1.412       .  A
C1817      C1818   1.403       .  A
C1817     Br1824   1.918       .  S
C1818      C1819   1.403       .  A
C1818      H1823   1.083       .  S
C1819      C1820   1.412       .  A
C1820     Br1821   1.918       .  S
H1822      C4039   1.083       .  S
C1825      C1826   1.411       .  A
C1825      C1830   1.415   1_655  A
C1825      H1832   1.083       .  S
C1826      C4051   1.416       .  A
C1827      C1828   1.416   1_655  A
C1827      C4050   1.414       .  A
C1827     Br1834   1.917       .  S
C1828      C4053   1.410       .  A
C1828      H1833   1.083       .  S
C1829      C1830   1.414       .  A
C1829      C4052   1.412       .  A
C1830     Br1831   1.917       .  S
C1835      C1836   1.403       .  A
C1835      C1840   1.386       .  A
C1835      H1842   1.083       .  S
C1836      C1837   1.401       .  A
C1837      C1838   1.391       .  A
C1837     Br1844   1.919       .  S
C1838      C1839   1.406       .  A
C1838      H1843   1.083       .  S
C1839      C1840   1.405       .  A
C1840     Br1841   1.922       .  S
C1845      C1846   1.403       .  A
C1845      C1850   1.419       .  A
C1845      H1852   1.083       .  S
C1846      C1847   1.420       .  A
C1847      C1848   1.407       .  A
C1847     Br1854   1.921       .  S
C1848      C1849   1.404       .  A
C1848      H1853   1.083       .  S
C1849      C1850   1.432       .  A
C1850     Br1851   1.921       .  S
C1855      C1856   1.409   1_556  A
C1855      C1860   1.399       .  A
C1855      H1862   1.083       .  S
C1856      C1857   1.420       .  A
C1857      C1858   1.382       .  A
C1857     Br1864   1.918       .  S
C1858      C1859   1.390   1_554  A
C1858      H1863   1.084       .  S
C1859      C1860   1.407       .  A
C1860     Br4085   1.918       .  S
Br1861     C4084   1.916       .  S
C1865      C1866   1.412       .  A
C1865      C1870   1.424       .  A
C1865      H1872   1.083       .  S
C1866      C1867   1.411       .  A
C1867      C1868   1.409       .  A
C1867     Br1874   1.918       .  S
C1868      C1869   1.415       .  A
C1868      H1873   1.083       .  S
C1869      C1870   1.424       .  A
C1870     Br1871   1.917       .  S
C1875      C1876   1.408       .  A
C1875      C1880   1.391       .  A
C1875      H1882   1.084       .  S
C1876      C2776   1.456       .  S
C1876      C1877   1.408       .  A
C1877      C1878   1.380       .  A
C1877     Br4108   1.926       .  S
C1878      C1879   1.395       .  A
C1878      H1883   1.076       .  S
C1879      C1880   1.401       .  A
C1880     Br1881   1.917       .  S
Br1884     C4101   1.924       .  S
C1885      C1886   1.413       .  A
C1885      C1890   1.395       .  A
C1885      H1892   1.083       .  S
C1886      C1887   1.417       .  A
C1887      C1888   1.400       .  A
C1887     Br1894   1.920       .  S
C1888      C1889   1.400       .  A
C1888      H1893   1.084       .  S
C1889      C1890   1.401       .  A
C1890     Br1891   1.919       .  S
C1895      C1896   1.403       .  A
C1895      C1900   1.406       .  A
C1895      H1902   1.084       .  S
C1896      C1897   1.409       .  A
C1897      C1898   1.405       .  A
C1897     Br1904   1.918       .  S
C1898      C1899   1.408       .  A
C1898      H4127   1.083       .  S
C1899      C1900   1.419       .  A
C1900     Br1901   1.920       .  S
H1903      C4122   1.083       .  S
C1905      C1910   1.403       .  A
C1905      C4130   1.408   1_554  A
C1905      H1912   1.084       .  S
C1906      C1907   1.401       .  A
C1906      C4129   1.416       .  A
C1907      C1908   1.404       .  A
C1907     Br1914   1.917       .  S
C1908      C4133   1.418       .  A
C1908      H1913   1.083       .  S
C1909      C1910   1.413       .  A
C1909      C4132   1.416       .  A
C1910     Br1911   1.919       .  S
C1915      C1916   1.412   1_565  A
C1915      C1920   1.419       .  A
C1915      H1922   1.083       .  S
C1916      C1917   1.417       .  A
C1917      C1918   1.416       .  A
C1917     Br1924   1.919       .  S
C1918      C1919   1.409   1_655  A
C1918      H1923   1.083       .  S
C1919      C1920   1.414   1_445  A
C1920     Br1921   1.916   1_655  S
C1925      C1926   1.406       .  A
C1925      C1930   1.394       .  A
C1925      H1932   1.084       .  S
C1926      C1927   1.398       .  A
C1927      C1928   1.386       .  A
C1927     Br1934   1.918       .  S
C1928      C1929   1.405       .  A
C1928      H1933   1.080       .  S
C1929      C1930   1.407       .  A
C1930     Br1931   1.920       .  S
C1935      C1936   1.412       .  A
C1935      C1940   1.411       .  A
C1935      H1942   1.083       .  S
C1936      C1937   1.411       .  A
C1937      C1938   1.406       .  A
C1937     Br1944   1.918       .  S
C1938      C1939   1.416       .  A
C1938      H1943   1.082       .  S
C1939      C1940   1.416       .  A
C1940     Br1941   1.918       .  S
C1945      C1946   1.394       .  A
C1945      C1950   1.393       .  A
C1945      H1952   1.084       .  S
C1946      C1947   1.406       .  A
C1947      C1948   1.387       .  A
C1947     Br1954   1.919       .  S
C1948      C1949   1.400       .  A
C1948      H1953   1.084       .  S
C1949      C1950   1.413       .  A
C1950     Br1951   1.915       .  S
C1955      C1956   1.418       .  A
C1955      C1960   1.432       .  A
C1955      H1962   1.083       .  S
C1956      C1957   1.414   1_565  A
C1957      C1958   1.406       .  A
C1957     Br1964   1.923       .  S
C1958      C1959   1.413       .  A
C1958      H1963   1.083       .  S
C1959      C1960   1.422   1_545  A
C1960     Br1961   1.915       .  S
C1965      C1966   1.409       .  A
C1965      C1970   1.391       .  A
C1965      H1972   1.083       .  S
C1966      C1967   1.403       .  A
C1967      C1968   1.394       .  A
C1967     Br1974   1.914       .  S
C1968      C1969   1.413       .  A
C1968      H1973   1.082       .  S
C1969      C1970   1.404       .  A
C1970     Br1971   1.918       .  S
C1975      C1976   1.412       .  A
C1975      C1980   1.401       .  A
C1975      H1982   1.083       .  S
C1976      C1977   1.405       .  A
C1977      C1978   1.392       .  A
C1977     Br1984   1.921       .  S
C1978      C1979   1.410       .  A
C1978      H1983   1.080       .  S
C1979      C1980   1.411       .  A
C1980     Br1981   1.922       .  S
C1985      C1986   1.413       .  A
C1985      C1990   1.419       .  A
C1985      H1992   1.083       .  S
C1986      C1987   1.413       .  A
C1987      C1988   1.395       .  A
C1987     Br1994   1.921       .  S
C1988      C1989   1.408       .  A
C1988      H1993   1.083       .  S
C1989      C1990   1.418       .  A
C1990     Br1991   1.917   1_565  S
C1995      C1996   1.410       .  A
C1995      C2000   1.415       .  A
C1995      H2002   1.083       .  S
C1996      C1997   1.418       .  A
C1997      C1998   1.393       .  A
C1997     Br2004   1.922       .  S
C1998      C1999   1.399       .  A
C1998      H2003   1.084       .  S
C1999      C2000   1.413       .  A
C2000     Br2001   1.916       .  S
C2005      C2006   1.413       .  A
C2005      C2010   1.415       .  A
C2005      H2012   1.084       .  S
C2006      C2007   1.416   1_455  A
C2007      C2008   1.423       .  A
C2007     Br2014   1.917       .  S
C2008      C2009   1.414       .  A
C2008      H2013   1.083       .  S
C2009      C2010   1.412   1_655  A
C2010     Br2011   1.918       .  S
C2015      C2016   1.413       .  A
C2015      C2020   1.390       .  A
C2015      H2022   1.083       .  S
C2016      C2017   1.409       .  A
C2017      C2018   1.388       .  A
C2017     Br2024   1.925       .  S
C2018      C2019   1.407       .  A
C2018      H2023   1.083       .  S
C2019      C2020   1.402       .  A
C2020     Br2021   1.924       .  S
C2025      C2026   1.406       .  A
C2025      C2030   1.389       .  A
C2025      H2032   1.081       .  S
C2026      C2027   1.403       .  A
C2027      C2028   1.393       .  A
C2027     Br2034   1.917       .  S
C2028      C2029   1.406       .  A
C2028      H2033   1.084       .  S
C2029      C2030   1.398       .  A
C2030     Br2031   1.918       .  S
C2035      C2036   1.398       .  A
C2035      C2040   1.395       .  A
C2035      H2042   1.085       .  S
C2036      C2037   1.416       .  A
C2037      C2038   1.417       .  A
C2037     Br2044   1.917       .  S
C2038      C2039   1.408       .  A
C2038      H2043   1.083       .  S
C2039      C2040   1.415       .  A
C2040     Br2041   1.919       .  S
C2045      C2046   1.406       .  A
C2045      C2050   1.395       .  A
C2045      H2052   1.083       .  S
C2046      C2047   1.424       .  A
C2047      C2048   1.395       .  A
C2047     Br2054   1.918       .  S
C2048      C2049   1.393       .  A
C2048      H2053   1.085       .  S
C2049      C2050   1.407       .  A
C2050     Br2051   1.917       .  S
C2055      C2056   1.410       .  A
C2055      C2060   1.418       .  A
C2055      H2062   1.083       .  S
C2056      C2057   1.421       .  A
C2057      C2058   1.428       .  A
C2057     Br2064   1.917   1_655  S
C2058      C2059   1.415       .  A
C2058      H2063   1.083   1_665  S
C2059      C2060   1.418       .  A
C2060     Br2061   1.917       .  S
C2065      C2066   1.404       .  A
C2065      C2070   1.392       .  A
C2065      H2072   1.083       .  S
C2066      C2067   1.412       .  A
C2067      C2068   1.388   1_565  A
C2067     Br2074   1.919       .  S
C2068      C2069   1.401       .  A
C2068      H2073   1.082       .  S
C2069      C2070   1.412   1_545  A
C2070     Br2071   1.920       .  S
C2075      C2076   1.405       .  A
C2075      C2080   1.397       .  A
C2075      H2082   1.082       .  S
C2076      C2077   1.415       .  A
C2077      C2078   1.394       .  A
C2077     Br2084   1.923       .  S
C2078      C2079   1.404       .  A
C2078      H2083   1.084       .  S
C2079      C2080   1.413       .  A
C2080     Br2081   1.922       .  S
C2085      C2086   1.405       .  A
C2085      C2090   1.391       .  A
C2085      H2092   1.084       .  S
C2086      C2087   1.403       .  A
C2087      C2088   1.393       .  A
C2087     Br2094   1.920       .  S
C2088      C2089   1.411       .  A
C2088      H2093   1.083       .  S
C2089      C2090   1.411       .  A
C2090     Br2091   1.925       .  S
C2095      C2096   1.402   1_655  A
C2095      C2100   1.405   1_655  A
C2095      H2102   1.083       .  S
C2096      C2097   1.413       .  A
C2097      C2098   1.409       .  A
C2097     Br2104   1.918       .  S
C2098      C2099   1.406       .  A
C2098      H2103   1.083       .  S
C2099      C2100   1.414       .  A
C2100     Br2101   1.916       .  S
C2105      C2106   1.411       .  A
C2105      C2110   1.421       .  A
C2105      H2112   1.083       .  S
C2106      C2107   1.414       .  A
C2107      C2108   1.404       .  A
C2107     Br2114   1.919       .  S
C2108      C2109   1.404       .  A
C2108      H2113   1.084       .  S
C2109      C2110   1.414       .  A
C2110     Br2111   1.913       .  S
C2115      C2116   1.403       .  A
C2115      C2120   1.397       .  A
C2115      H2122   1.083       .  S
C2116      C2117   1.412       .  A
C2117      C2118   1.393       .  A
C2117     Br2124   1.920       .  S
C2118      C2119   1.400       .  A
C2118      H2123   1.084       .  S
C2119      C2120   1.413       .  A
C2120     Br2121   1.921       .  S
C2125      C2126   1.399       .  A
C2125      C2130   1.390       .  A
C2125      H2132   1.084       .  S
C2126      C2127   1.409       .  A
C2127      C2128   1.396       .  A
C2127     Br2134   1.917   1_565  S
C2128      C2129   1.398       .  A
C2128      H2133   1.079       .  S
C2129      C2130   1.404       .  A
C2130     Br2131   1.911       .  S
C2135      C2136   1.414   1_556  A
C2135      C2140   1.428       .  A
C2135      H4366   1.083       .  S
C2136      C2137   1.416       .  A
C2137      C2138   1.404       .  A
C2137     Br2144   1.910       .  S
C2138      C2139   1.405   1_564  A
C2138      H2143   1.084   1_565  S
C2139      C2140   1.421   1_545  A
C2140     Br4365   1.915       .  S
Br2141     C4364   1.915   1_545  S
H2142      C4359   1.083       .  S
C2145      C2146   1.405       .  A
C2145      C2150   1.401       .  A
C2145      H2152   1.084       .  S
C2146      C2147   1.404       .  A
C2147      C2148   1.401       .  A
C2147     Br2154   1.915       .  S
C2148      C2149   1.407       .  A
C2148      H2153   1.084       .  S
C2149      C2150   1.410       .  A
C2150     Br2151   1.921       .  S
C2155      C2160   1.397       .  A
C2155      C4380   1.403       .  A
C2155      H2162   1.084       .  S
C2156      C2314   1.476       .  S
C2156      C2157   1.415       .  A
C2156      C4379   1.403       .  A
C2157      C2158   1.399       .  A
C2157     Br2164   1.922       .  S
C2158      C2159   1.402       .  A
C2158      H2163   1.084       .  S
C2159      C4384   1.408       .  A
C2160      C4383   1.411       .  A
C2160     Br2161   1.916       .  S
C2165      C2166   1.418       .  A
C2165      C2170   1.428       .  A
C2165      H2172   1.083       .  S
C2166      C2167   1.409       .  A
C2167      C2168   1.413       .  A
C2167     Br2174   1.917       .  S
C2168      C2169   1.413       .  A
C2168      H2173   1.073       .  S
C2169      C2170   1.418       .  A
C2170     Br2171   1.916       .  S
C2175      C2176   1.399       .  A
C2175      C4404   1.390       .  A
C2175      H2182   1.080       .  S
C2176      C2177   1.403       .  A
C2177      C2178   1.390       .  A
C2177     Br2184   1.921       .  S
C2178      C4403   1.414       .  A
C2178      H2183   1.082       .  S
C2179      C2180   1.413       .  A
C2179      C4402   1.412       .  A
C2180      C4399   1.389       .  A
C2180     Br2181   1.920       .  S
C2185      C2186   1.385       .  A
C2185      C2190   1.393       .  A
C2185      H4416   1.085       .  S
C2186      C3568   1.478       .  S
C2186      C2187   1.408       .  A
C2187      C2188   1.404       .  A
C2187     Br2194   1.910       .  S
C2188      C2189   1.408       .  A
C2188      H2193   1.083       .  S
C2189      C2190   1.438       .  A
C2190     Br2191   1.924       .  S
H2192      C4409   1.085       .  S
C2195      C2196   1.408       .  A
C2195      C2200   1.402       .  A
C2195      H2202   1.084       .  S
C2196      C2197   1.414       .  A
C2197      C2198   1.396       .  A
C2197     Br2204   1.922       .  S
C2198      C2199   1.405       .  A
C2198      H2203   1.084       .  S
C2199      C2200   1.412       .  A
C2200     Br2201   1.918       .  S
C2205      C2206   1.406       .  A
C2205      C2210   1.400       .  A
C2205      H2212   1.084       .  S
C2206      C2207   1.419       .  A
C2207      C2208   1.413       .  A
C2207     Br2214   1.918       .  S
C2208      C2209   1.406       .  A
C2208      H2213   1.083       .  S
C2209      C2210   1.413       .  A
C2210     Br2211   1.921       .  S
C2215      C2216   1.405       .  A
C2215      C2220   1.403       .  A
C2215      H2222   1.083       .  S
C2216      C2217   1.403       .  A
C2217      C2218   1.399       .  A
C2217     Br2224   1.913       .  S
C2218      C2219   1.408       .  A
C2218      H2223   1.083       .  S
C2219      C2511   1.488   1_554  S
C2219      C2220   1.414       .  A
C2220     Br4445   1.920       .  S
Br2221     C4444   1.920       .  S
Zr2225     O2226   2.439       .  S
Zr2225     O2227   2.483       .  S
Zr2225     O2228   2.466       .  S
Zr2225     O2231   2.400       .  S
Zr2225     O2233   2.368       .  S
Zr2225     O2234   2.401       .  S
Zr2225     O2235   2.423       .  S
Zr2225     O2236   2.433       .  S
O2226      H2282   0.990       .  S
O2226      H2290   0.990       .  S
O2227      C2247   1.293       .  A
O2228      C2249   1.287       .  A
O2229     Zr2239   2.455       .  S
O2229      C2248   1.281       .  A
O2230     Zr2238   2.439       .  S
O2230      C2249   1.283       .  A
O2231      C2248   1.270       .  A
O2232     Zr2240   2.385       .  S
O2232      C2247   1.274       .  A
O2233     Zr2238   2.389       .  S
O2233     Zr2240   2.389       .  S
O2234     Zr2239   2.406       .  S
O2234     Zr2240   2.363       .  S
O2234      H2269   0.965       .  S
O2235     Zr2238   2.379       .  S
O2235     Zr2255   2.449       .  S
O2235      H2272   0.966       .  S
O2236     Zr2239   2.408       .  S
O2236     Zr2255   2.421       .  S
Zr2237     O2262   2.436       .  S
Zr2237     O2256   2.455       .  S
Zr2237     O2264   2.379       .  S
Zr2237     O2252   2.441       .  S
Zr2237     O2243   2.408       .  S
Zr2237     O2244   2.393       .  S
Zr2237     O2245   2.383       .  S
Zr2237     O2246   2.378       .  S
Zr2238     O2257   2.437       .  S
Zr2238     O2250   2.436       .  S
Zr2238     O2251   2.400       .  S
Zr2238     O2244   2.403       .  S
Zr2238     O2245   2.405       .  S
Zr2239     O2241   2.434       .  S
Zr2239     O2263   2.434       .  S
Zr2239     O2265   2.475       .  S
Zr2239     O2243   2.404       .  S
Zr2239     O2246   2.366       .  S
Zr2240     O2266   2.435       .  S
Zr2240     O2267   2.437       .  S
Zr2240     O2242   2.439       .  S
Zr2240     O2243   2.392       .  S
Zr2240     O2244   2.360       .  S
O2241      H2278   0.990       .  S
O2242      H2287   0.990       .  S
O2244      H2270   0.963       .  S
O2245     Zr2255   2.382       .  S
O2246     Zr2255   2.348       .  S
O2246      H2271   0.961       .  S
C2247      C4440   1.473       .  S
C2248      C4423   1.484       .  S
C2249      C4433   1.501       .  S
O2250      H2286   0.991       .  S
O2251      C2253   1.280       .  A
O2252      C2253   1.286       .  A
C2253      C4403   1.480       .  S
O2254     Zr2255   2.437       .  S
O2254      H2283   0.991       .  S
Zr2255     O2258   2.435       .  S
Zr2255     O2259   2.439       .  S
Zr2255     O2260   2.526       .  S
O2256      C2261   1.289       .  A
O2257      H2274   0.990       .  S
O2257      H2289   0.990       .  S
O2258      H2275   0.990       .  S
O2259      H2279   0.990       .  S
O2259      H2288   0.990       .  S
O2260      C2261   1.300       .  A
C2261      C4390   1.522       .  S
O2262      H2281   0.990       .  S
O2262      H2285   0.988       .  S
O2263      H2277   0.990       .  S
O2263      H2284   0.990       .  S
O2264      C2268   1.273       .  A
O2265      C2268   1.295       .  A
O2266      H2276   0.990       .  S
C2268      C4413   1.479       .  S
Zr2291     O2293   2.445       .  S
Zr2291     O2294   2.437       .  S
Zr2291     O2297   2.392       .  S
Zr2291     O2299   2.371       .  S
Zr2291     O2300   2.397       .  S
Zr2291     O2301   2.421       .  S
Zr2291     O2302   2.422       .  S
O2292      H2348   0.990       .  S
O2292      H2356   0.990       .  S
O2293      C2313   1.280       .  A
O2294      C2315   1.285       .  A
O2295     Zr2305   2.444       .  S
O2295      C2314   1.287       .  A
O2296     Zr2304   2.494       .  S
O2296      C2315   1.294       .  A
O2297      C2314   1.277       .  A
O2298     Zr2306   2.401       .  S
O2298      C2313   1.271       .  A
O2299     Zr2304   2.362       .  S
O2299     Zr2306   2.364       .  S
O2300     Zr2305   2.371       .  S
O2300     Zr2306   2.374       .  S
O2300      H2335   0.965       .  S
O2301     Zr2304   2.394       .  S
O2301     Zr2321   2.448       .  S
O2301      H2338   0.966       .  S
O2302     Zr2305   2.385       .  S
O2302     Zr2321   2.429       .  S
Zr2303     O2328   2.439       .  S
Zr2303     O2322   2.464       .  S
Zr2303     O2330   2.422       .  S
Zr2303     O2318   2.448       .  S
Zr2303     O2309   2.394       .  S
Zr2303     O2310   2.416       .  S
Zr2303     O2311   2.386       .  S
Zr2303     O2312   2.389       .  S
Zr2304     O2323   2.437       .  S
Zr2304     O2316   2.438       .  S
Zr2304     O2317   2.414       .  S
Zr2304     O2310   2.418       .  S
Zr2304     O2311   2.418       .  S
Zr2305     O2329   2.437       .  S
Zr2305     O2331   2.408       .  S
Zr2305     O2309   2.405       .  S
Zr2305     O2312   2.385       .  S
Zr2306     O2332   2.435       .  S
Zr2306     O2333   2.436       .  S
Zr2306     O2308   2.435       .  S
Zr2306     O2309   2.371       .  S
Zr2306     O2310   2.375       .  S
O2307      H2344   0.990       .  S
O2308      H2339   0.990       .  S
O2308      H2353   0.990       .  S
O2310      H2336   0.964       .  S
O2311     Zr2321   2.381       .  S
O2312     Zr2321   2.361       .  S
O2312      H2337   0.964       .  S
C2313      C4370   1.460       .  S
C2315      C4430   1.513       .  S
O2316      H2352   0.990       .  S
O2317      C2319   1.281       .  A
O2318      C2319   1.286       .  A
C2319      C4340   1.479       .  S
O2320      H2349   0.990       .  S
Zr2321     O2326   2.514       .  S
O2322      C2327   1.288       .  A
O2323      H2340   0.990       .  S
O2323      H2355   0.990       .  S
O2324      H2341   0.990   1_556  S
O2325      H2345   0.990       .  S
O2325      H2354   0.990       .  S
O2326      C2327   1.299       .  A
C2327      C4360   1.536       .  S
O2328      H2347   0.988       .  S
O2328      H2351   0.990       .  S
O2329      H2343   0.990       .  S
O2329      H2350   0.990       .  S
O2330      C2334   1.280       .  A
O2331      C2334   1.274       .  A
O2332      H2342   0.990       .  S
O2333      H2346   0.990       .  S
C2334      C4353   1.443       .  S
Zr2357     O2358   2.437       .  S
Zr2357     O2359   2.501       .  S
Zr2357     O2360   2.433       .  S
Zr2357     O2363   2.395       .  S
Zr2357     O2365   2.375       .  S
Zr2357     O2366   2.368       .  S
Zr2357     O2367   2.430       .  S
Zr2357     O2368   2.427       .  S
O2358      H2414   0.990       .  S
O2358      H2422   0.989       .  S
O2359      C2379   1.297       .  A
O2360      C2381   1.284       .  A
O2361     Zr2371   2.430       .  S
O2361      C2380   1.284       .  A
O2362     Zr2370   2.482       .  S
O2362      C2381   1.292   1_655  A
O2363      C2380   1.280       .  A
O2364     Zr2372   2.420       .  S
O2364      C2379   1.280       .  A
O2365     Zr2370   2.398   1_455  S
O2365     Zr2372   2.387       .  S
O2366     Zr2371   2.366       .  S
O2366     Zr2372   2.358       .  S
O2366      H2401   0.962       .  S
O2367     Zr2370   2.406   1_455  S
O2367     Zr2387   2.459       .  S
O2367      H2404   0.966       .  S
O2368     Zr2371   2.396       .  S
O2368     Zr2387   2.437       .  S
Zr2369     O2394   2.433   1_455  S
Zr2369     O2388   2.435   1_455  S
Zr2369     O2396   2.386       .  S
Zr2369     O2384   2.398   1_455  S
Zr2369     O2375   2.403       .  S
Zr2369     O2376   2.417       .  S
Zr2369     O2377   2.383   1_455  S
Zr2369     O2378   2.365       .  S
Zr2370     O2389   2.436       .  S
Zr2370     O2382   2.435       .  S
Zr2370     O2383   2.451       .  S
Zr2370     O2376   2.429   1_655  S
Zr2370     O2377   2.427       .  S
Zr2371     O2373   2.435       .  S
Zr2371     O2395   2.435       .  S
Zr2371     O2397   2.428       .  S
Zr2371     O2375   2.394       .  S
Zr2371     O2378   2.364       .  S
Zr2372     O2398   2.434       .  S
Zr2372     O2399   2.434       .  S
Zr2372     O2374   2.438       .  S
Zr2372     O2375   2.406       .  S
Zr2372     O2376   2.376       .  S
O2373      H2410   0.990       .  S
O2374      H2405   0.990       .  S
O2374      H2419   0.990       .  S
O2376      H2402   0.961   1_455  S
O2377     Zr2387   2.360   1_655  S
O2378     Zr2387   2.338       .  S
O2378      H2403   0.962       .  S
C2379      C4330   1.494       .  S
C2380      C4310   1.464       .  S
C2381      C4320   1.497   1_455  S
O2382      H2418   0.990       .  S
O2383      C2385   1.276       .  A
O2384      C2385   1.266       .  A
C2385      C4303   1.479       .  S
O2386     Zr2387   2.437       .  S
O2386      H2415   0.990       .  S
Zr2387     O2390   2.437   1_455  S
Zr2387     O2391   2.436       .  S
Zr2387     O2392   2.566   1_455  S
O2388      C2393   1.285       .  A
O2389      H2406   0.990       .  S
O2389      H2421   0.990       .  S
O2390      H2407   0.990       .  S
O2391      H2411   0.990       .  S
O2391      H2420   0.990       .  S
O2392      C2393   1.309       .  A
C2393      C4280   1.532       .  S
O2394      H2413   0.989       .  S
O2394      H2417   0.990   1_655  S
O2395      H2409   0.990       .  S
O2395      H2416   0.990       .  S
O2396      C2400   1.276       .  A
O2397      C2400   1.285       .  A
O2398      H2408   0.989       .  S
O2399      H2412   0.990       .  S
C2400      C4290   1.467       .  S
Zr2423     O2424   2.445       .  S
Zr2423     O2425   2.513       .  S
Zr2423     O2426   2.400       .  S
Zr2423     O2429   2.384       .  S
Zr2423     O2431   2.363       .  S
Zr2423     O2432   2.381       .  S
Zr2423     O2433   2.423       .  S
Zr2423     O2434   2.433       .  S
O2424      H2480   0.990       .  S
O2424      H2488   0.989       .  S
O2425      C2445   1.299       .  A
O2426      C2447   1.278       .  A
O2427     Zr2437   2.442       .  S
O2427      C2446   1.283       .  A
O2428     Zr2436   2.496       .  S
O2428      C2447   1.295   1_655  A
O2429      C2446   1.267       .  A
O2430     Zr2438   2.395       .  S
O2430      C2445   1.276       .  A
O2431     Zr2436   2.375   1_455  S
O2431     Zr2438   2.373       .  S
O2432     Zr2437   2.397       .  S
O2432     Zr2438   2.368       .  S
O2432      H2467   0.961       .  S
O2433     Zr2436   2.381   1_455  S
O2433     Zr2453   2.452       .  S
O2433      H2470   0.966       .  S
O2434     Zr2437   2.381       .  S
O2434     Zr2453   2.439       .  S
Zr2435     O2460   2.433       .  S
Zr2435     O2454   2.390       .  S
Zr2435     O2462   2.442       .  S
Zr2435     O2450   2.405   1_455  S
Zr2435     O2441   2.371       .  S
Zr2435     O2442   2.435       .  S
Zr2435     O2443   2.395       .  S
Zr2435     O2444   2.384       .  S
Zr2436     O2455   2.436       .  S
Zr2436     O2448   2.432       .  S
Zr2436     O2449   2.426       .  S
Zr2436     O2442   2.414   1_655  S
Zr2436     O2443   2.424   1_655  S
Zr2437     O2439   2.434       .  S
Zr2437     O2461   2.440       .  S
Zr2437     O2463   2.418       .  S
Zr2437     O2441   2.399       .  S
Zr2437     O2444   2.399       .  S
Zr2438     O2464   2.435       .  S
Zr2438     O2465   2.438       .  S
Zr2438     O2440   2.436       .  S
Zr2438     O2441   2.371       .  S
Zr2438     O2442   2.355       .  S
O2439      H2476   0.990       .  S
O2440      H2471   0.990       .  S
O2440      H2485   0.990       .  S
O2442      H2468   0.958       .  S
O2443     Zr2453   2.350       .  S
O2444     Zr2453   2.377       .  S
O2444      H2469   0.966       .  S
C2445      C4263   1.488       .  S
C2446      C4270   1.476       .  S
C2447      C4323   1.487   1_455  S
O2448      H2484   0.990       .  S
O2449      C2451   1.275       .  A
O2450      C2451   1.272       .  A
C2451      C4240   1.467       .  S
O2452     Zr2453   2.435       .  S
O2452      H2481   0.990       .  S
Zr2453     O2456   2.436   1_455  S
Zr2453     O2457   2.437       .  S
Zr2453     O2458   2.536       .  S
O2454      C2459   1.273       .  A
O2455      H2472   0.990       .  S
O2455      H2487   0.990       .  S
O2456      H2473   0.990       .  S
O2457      H2477   0.991       .  S
O2457      H2486   0.990       .  S
O2458      C2459   1.302       .  A
C2459      C4230   1.508       .  S
O2460      H2479   0.990       .  S
O2460      H2483   0.990       .  S
O2461      H2475   0.990       .  S
O2461      H2482   0.991       .  S
O2462      C2466   1.287       .  A
O2463      C2466   1.277       .  A
O2464      H2474   0.990       .  S
O2465      H2478   0.990       .  S
C2466      C4253   1.461       .  S
Zr2489     O2495   2.449       .  S
Zr2489     O2497   2.380       .  S
Zr2489     O2498   2.388       .  S
Zr2489     O2499   2.405       .  S
Zr2489     O2500   2.381       .  S
O2490      H2546   0.991       .  S
O2490      H2554   0.990       .  S
O2492      C2513   1.286       .  A
O2493     Zr2503   2.435       .  S
O2493      C2512   1.286       .  A
O2494      C2513   1.288       .  A
O2495      C2512   1.288       .  A
O2496     Zr2504   2.447       .  S
O2496      C2511   1.285       .  A
O2497     Zr2502   2.409       .  S
O2497     Zr2504   2.367       .  S
O2498     Zr2503   2.412       .  S
O2498     Zr2504   2.383       .  S
O2498      H2533   0.966       .  S
O2499     Zr2502   2.419       .  S
O2499     Zr2519   2.390       .  S
O2500     Zr2503   2.403       .  S
O2500     Zr2519   2.366       .  S
Zr2501     O2526   2.444       .  S
Zr2501     O2520   2.439       .  S
Zr2501     O2528   2.387       .  S
Zr2501     O2516   2.382       .  S
Zr2501     O2507   2.401       .  S
Zr2501     O2508   2.405       .  S
Zr2501     O2509   2.370       .  S
Zr2501     O2510   2.363       .  S
Zr2502     O2521   2.434       .  S
Zr2502     O2514   2.435       .  S
Zr2502     O2515   2.514       .  S
Zr2502     O2508   2.393       .  S
Zr2502     O2509   2.387       .  S
Zr2503     O2505   2.437       .  S
Zr2503     O2527   2.436       .  S
Zr2503     O2529   2.496       .  S
Zr2503     O2507   2.382       .  S
Zr2503     O2510   2.385       .  S
Zr2504     O2530   2.437       .  S
Zr2504     O2531   2.435       .  S
Zr2504     O2506   2.439       .  S
Zr2504     O2507   2.418       .  S
Zr2504     O2508   2.406       .  S
O2505      H2542   0.990       .  S
O2506      H2537   0.990       .  S
O2506      H2551   0.990       .  S
O2508      H2534   0.966       .  S
O2509     Zr2519   2.379       .  S
O2510     Zr2519   2.389       .  S
O2510      H2535   0.966       .  S
C2512      C4383   1.479       .  S
C2513      C2579   1.484       .  S
O2514      H2550   0.990       .  S
O2515      C2517   1.300       .  A
O2516      C2517   1.274       .  A
C2517      C4260   1.484       .  S
O2518     Zr2519   2.437       .  S
O2518      H2547   0.990       .  S
Zr2519     O2522   2.436       .  S
Zr2519     O2523   2.438       .  S
Zr2519     O2524   2.386       .  S
O2520      C2525   1.285       .  A
O2522      H2539   0.990       .  S
O2523      H2543   0.990       .  S
O2523      H2552   0.990       .  S
O2524      C2525   1.276       .  A
C2525      C4313   1.480       .  S
O2526      H2545   0.990       .  S
O2526      H2549   0.990       .  S
O2527      H2541   0.990       .  S
O2527      H2548   0.990       .  S
O2528      C2532   1.277       .  A
O2529      C2532   1.293       .  A
O2530      H2540   0.990       .  S
O2531      H2544   0.990       .  S
C2532      C2598   1.484       .  S
Zr2555     O2556   2.441       .  S
Zr2555     O2557   2.396       .  S
Zr2555     O2558   2.425       .  S
Zr2555     O2561   2.433       .  S
Zr2555     O2563   2.378       .  S
Zr2555     O2564   2.389       .  S
Zr2555     O2565   2.397       .  S
Zr2555     O2566   2.378       .  S
O2556      H2612   0.991       .  S
O2556      H2620   0.990       .  S
O2557      C2577   1.277       .  A
O2558      C2579   1.284       .  A
O2559     Zr2569   2.429       .  S
O2559      C2578   1.284       .  A
O2560     Zr2568   2.472       .  S
O2560      C2579   1.291       .  A
O2561      C2578   1.286       .  A
O2562     Zr2570   2.450       .  S
O2562      C2577   1.287       .  A
O2563     Zr2568   2.406       .  S
O2563     Zr2570   2.368       .  S
O2564     Zr2569   2.389       .  S
O2564     Zr2570   2.381       .  S
O2564      H2599   0.965       .  S
O2565     Zr2568   2.415       .  S
O2565     Zr2585   2.392       .  S
O2565      H2602   0.966       .  S
O2566     Zr2569   2.404       .  S
O2566     Zr2585   2.363       .  S
Zr2567     O2592   2.442       .  S
Zr2567     O2586   2.436       .  S
Zr2567     O2594   2.410       .  S
Zr2567     O2582   2.385       .  S
Zr2567     O2573   2.393       .  S
Zr2567     O2574   2.406       .  S
Zr2567     O2575   2.380       .  S
Zr2567     O2576   2.369       .  S
Zr2568     O2587   2.435       .  S
Zr2568     O2580   2.435       .  S
Zr2568     O2581   2.504       .  S
Zr2568     O2574   2.406       .  S
Zr2568     O2575   2.388       .  S
Zr2569     O2571   2.435       .  S
Zr2569     O2593   2.436       .  S
Zr2569     O2595   2.473       .  S
Zr2569     O2573   2.387       .  S
Zr2569     O2576   2.378       .  S
Zr2570     O2596   2.437       .  S
Zr2570     O2597   2.435       .  S
Zr2570     O2572   2.437       .  S
Zr2570     O2573   2.408       .  S
Zr2570     O2574   2.411       .  S
O2571      H2608   0.990       .  S
O2572      H2603   0.990       .  S
O2572      H2617   0.990       .  S
O2574      H2600   0.966       .  S
O2575     Zr2585   2.369       .  S
O2576     Zr2585   2.392       .  S
O2576      H2601   0.966       .  S
C2577      C4373   1.470       .  S
C2578      C4420   1.479       .  S
O2580      H2616   0.990       .  S
O2581      C2583   1.298       .  A
O2582      C2583   1.275       .  A
C2583      C4333   1.486       .  S
O2584     Zr2585   2.436       .  S
O2584      H2613   0.990       .  S
Zr2585     O2588   2.439       .  S
Zr2585     O2589   2.436       .  S
Zr2585     O2590   2.372       .  S
O2586      C2591   1.284       .  A
O2587      H2604   0.990       .  S
O2587      H2619   0.990       .  S
O2588      H2605   0.990       .  S
O2589      H2609   0.990       .  S
O2589      H2618   0.990       .  S
O2590      C2591   1.273       .  A
C2591      C4273   1.456       .  S
O2592      H2611   0.990       .  S
O2592      H2615   0.990       .  S
O2593      H2607   0.990       .  S
O2593      H2614   0.990       .  S
O2594      C2598   1.283       .  A
O2595      C2598   1.289       .  A
O2596      H2606   0.990       .  S
O2597      H2610   0.990       .  S
Zr2621     O2622   2.434       .  S
Zr2621     O2623   2.419       .  S
Zr2621     O2624   2.413       .  S
Zr2621     O2627   2.469       .  S
Zr2621     O2629   2.381       .  S
Zr2621     O2630   2.394       .  S
Zr2621     O2631   2.415       .  S
Zr2621     O2632   2.348       .  S
O2622      H2678   0.990       .  S
O2622      H2686   0.991       .  S
O2623      C2643   1.278       .  A
O2624      C2645   1.281       .  A
O2625     Zr2635   2.428       .  S
O2625      C2644   1.286       .  A
O2626     Zr2634   2.421       .  S
O2626      C2645   1.278       .  A
O2627      C2644   1.290       .  A
O2628     Zr2636   2.530       .  S
O2628      C2643   1.299       .  A
O2629     Zr2634   2.405       .  S
O2629     Zr2636   2.365       .  S
O2630     Zr2635   2.423       .  S
O2630     Zr2636   2.386       .  S
O2630      H2665   0.966       .  S
O2631     Zr2634   2.424       .  S
O2631     Zr2651   2.390       .  S
O2631      H2668   0.965       .  S
O2632     Zr2635   2.359       .  S
O2632     Zr2651   2.331       .  S
Zr2633     O2658   2.437       .  S
Zr2633     O2652   2.506       .  S
Zr2633     O2660   2.419       .  S
Zr2633     O2648   2.407       .  S
Zr2633     O2639   2.428       .  S
Zr2633     O2640   2.439       .  S
Zr2633     O2641   2.372       .  S
Zr2633     O2642   2.375       .  S
Zr2634     O2653   2.441       .  S
Zr2634     O2646   2.435       .  S
Zr2634     O2647   2.470       .  S
Zr2634     O2640   2.393       .  S
Zr2634     O2641   2.374       .  S
Zr2635     O2637   2.439   1_565  S
Zr2635     O2659   2.436   1_565  S
Zr2635     O2661   2.474       .  S
Zr2635     O2639   2.376       .  S
Zr2635     O2642   2.395       .  S
Zr2636     O2662   2.438   1_565  S
Zr2636     O2663   2.437   1_565  S
Zr2636     O2638   2.439       .  S
Zr2636     O2639   2.454       .  S
Zr2636     O2640   2.447       .  S
O2637      H2674   0.990   1_545  S
O2638      H2669   0.991       .  S
O2638      H2683   0.990       .  S
O2640      H2666   0.966       .  S
O2641     Zr2651   2.350       .  S
O2642     Zr2651   2.394       .  S
O2642      H2667   0.965       .  S
C2643      C4180   1.532       .  S
C2644      C4190   1.477       .  S
C2645      C4343   1.458       .  S
O2646      H2682   0.990       .  S
O2647      C2649   1.289       .  A
O2648      C2649   1.276       .  A
C2649      C4200   1.489       .  S
O2650     Zr2651   2.437       .  S
O2650      H2679   0.990       .  S
Zr2651     O2654   2.435       .  S
Zr2651     O2655   2.439       .  S
Zr2651     O2656   2.381       .  S
O2652      C2657   1.297       .  A
O2653      H2670   0.990       .  S
O2653      H2685   0.990       .  S
O2654      H2671   0.990       .  S
O2655      H2675   0.990       .  S
O2655      H2684   0.990       .  S
O2656      C2657   1.275       .  A
C2657      C4220   1.493       .  S
O2658      H2677   0.991       .  S
O2658      H2681   0.990       .  S
O2659      H2673   0.990       .  S
O2659      H2680   0.990       .  S
O2660      C2664   1.281       .  A
O2661      C2664   1.290       .  A
O2662      H2672   0.990       .  S
O2663      H2676   0.990   1_545  S
C2664      C4213   1.484       .  S
Zr2687     O2688   2.429   1_565  S
Zr2687     O2689   2.410   1_565  S
Zr2687     O2690   2.431       .  S
Zr2687     O2693   2.438   1_565  S
Zr2687     O2695   2.396       .  S
Zr2687     O2696   2.393   1_565  S
Zr2687     O2697   2.431       .  S
Zr2687     O2698   2.405       .  S
O2688      H2744   0.988       .  S
O2688      H2752   0.989       .  S
O2689      C2709   1.277       .  A
O2690      C2711   1.274       .  A
O2691     Zr2701   2.389       .  S
O2691      C2710   1.273       .  A
O2692     Zr2700   2.416       .  S
O2692      C2711   1.273       .  A
O2693      C2710   1.278       .  A
O2694     Zr2702   2.513       .  S
O2694      C2709   1.296   1_565  A
O2695     Zr2700   2.404       .  S
O2695     Zr2702   2.347       .  S
O2696     Zr2701   2.420       .  S
O2696     Zr2702   2.360   1_545  S
O2696      H2731   0.966       .  S
O2697     Zr2700   2.413       .  S
O2697     Zr2717   2.365       .  S
O2697      H2734   0.975       .  S
O2698     Zr2701   2.421   1_565  S
O2698     Zr2717   2.393       .  S
Zr2699     O2724   2.439       .  S
Zr2699     O2718   2.510       .  S
Zr2699     O2726   2.451       .  S
Zr2699     O2714   2.397       .  S
Zr2699     O2705   2.434       .  S
Zr2699     O2706   2.431       .  S
Zr2699     O2707   2.362       .  S
Zr2699     O2708   2.365       .  S
Zr2700     O2719   2.440       .  S
Zr2700     O2712   2.435       .  S
Zr2700     O2713   2.435       .  S
Zr2700     O2706   2.402       .  S
Zr2700     O2707   2.388       .  S
Zr2701     O2703   2.442       .  S
Zr2701     O2725   2.437       .  S
Zr2701     O2727   2.453   1_545  S
Zr2701     O2705   2.382   1_545  S
Zr2701     O2708   2.405   1_545  S
Zr2702     O2728   2.438   1_565  S
Zr2702     O2729   2.435       .  S
Zr2702     O2704   2.441       .  S
Zr2702     O2705   2.459       .  S
Zr2702     O2706   2.393       .  S
O2703      H2740   0.990       .  S
O2704      H2735   0.990       .  S
O2704      H2749   0.990       .  S
O2706      H2732   0.962       .  S
O2707     Zr2717   2.381       .  S
O2708     Zr2717   2.360       .  S
O2708      H2733   0.963       .  S
C2709      C4140   1.503       .  S
C2710      C4150   1.447       .  S
C2711      C4300   1.484       .  S
O2712      H2748   0.990       .  S
O2713      C2715   1.282       .  A
O2714      C2715   1.280       .  A
C2715      C4170   1.445       .  S
O2716     Zr2717   2.427       .  S
O2716      H2745   0.990       .  S
Zr2717     O2720   2.439       .  S
Zr2717     O2721   2.437       .  S
Zr2717     O2722   2.418       .  S
O2718      C2723   1.299       .  A
O2719      H2736   0.989       .  S
O2719      H2751   0.990       .  S
O2720      H2737   0.990       .  S
O2721      H2741   0.990       .  S
O2721      H2750   0.990       .  S
O2722      C2723   1.279       .  A
C2723      C4160   1.508       .  S
O2724      H2743   0.990       .  S
O2724      H2747   0.990       .  S
O2725      H2739   0.990       .  S
O2725      H2746   0.990       .  S
O2726      C2730   1.287       .  A
O2727      C2730   1.286       .  A
O2728      H2738   0.990       .  S
O2729      H2742   0.990       .  S
C2730      C4210   1.485       .  S
Zr2753     O2754   2.434       .  S
Zr2753     O2755   2.385       .  S
Zr2753     O2756   2.426       .  S
Zr2753     O2759   2.392   1_556  S
Zr2753     O2761   2.367       .  S
Zr2753     O2762   2.384       .  S
Zr2753     O2763   2.389       .  S
Zr2753     O2764   2.389   1_556  S
O2754      H2810   0.990   1_556  S
O2755      C2775   1.277       .  A
O2756      C2777   1.271       .  A
O2757     Zr2767   2.403   1_554  S
O2757      C2776   1.282       .  A
O2758     Zr2766   2.407       .  S
O2758      C2777   1.264       .  A
O2759      C2776   1.277       .  A
O2760     Zr2768   2.551       .  S
O2760      C2775   1.306       .  A
O2761     Zr2766   2.405       .  S
O2761     Zr2768   2.330       .  S
O2762     Zr2767   2.398       .  S
O2762     Zr2768   2.360       .  S
O2762      H2797   0.966       .  S
O2763     Zr2766   2.433       .  S
O2763     Zr2783   2.371       .  S
O2763      H2800   0.966       .  S
O2764     Zr2767   2.401   1_554  S
O2764     Zr2783   2.365   1_554  S
Zr2765     O2790   2.438       .  S
Zr2765     O2784   2.479       .  S
Zr2765     O2792   2.413       .  S
Zr2765     O2780   2.410       .  S
Zr2765     O2771   2.424       .  S
Zr2765     O2772   2.430       .  S
Zr2765     O2773   2.369       .  S
Zr2765     O2774   2.371       .  S
Zr2766     O2785   2.436       .  S
Zr2766     O2778   2.434       .  S
Zr2766     O2779   2.424       .  S
Zr2766     O2772   2.401       .  S
Zr2766     O2773   2.381       .  S
Zr2767     O2769   2.435   1_556  S
Zr2767     O2791   2.436       .  S
Zr2767     O2793   2.481       .  S
Zr2767     O2771   2.375       .  S
Zr2767     O2774   2.372       .  S
Zr2768     O2794   2.435       .  S
Zr2768     O2795   2.435       .  S
Zr2768     O2770   2.437       .  S
Zr2768     O2771   2.446       .  S
Zr2768     O2772   2.454       .  S
O2769      H2806   0.990       .  S
O2770      H2801   0.990       .  S
O2770      H2815   0.990       .  S
O2772      H2798   0.966       .  S
O2773     Zr2783   2.384       .  S
O2774     Zr2783   2.380       .  S
O2774      H2799   0.965       .  S
C2775      C4090   1.507       .  S
C2777      C4400   1.462       .  S
O2778      H2814   0.990       .  S
O2779      C2781   1.281       .  A
O2780      C2781   1.281       .  A
C2781      C4110   1.484       .  S
O2782      H2811   0.990       .  S
Zr2783     O2786   2.436       .  S
Zr2783     O2788   2.364   1_556  S
O2784      C2789   1.292       .  A
O2785      H2802   0.990       .  S
O2785      H2817   0.990       .  S
O2787      H2807   0.991       .  S
O2787      H2816   0.990       .  S
O2788      C2789   1.271   1_554  A
C2789      C4130   1.466       .  S
O2790      H2809   0.990       .  S
O2790      H2813   0.990       .  S
O2791      H2805   0.990       .  S
O2791      H2812   0.990       .  S
O2792      C2796   1.280       .  A
O2793      C2796   1.291       .  A
O2794      H2804   0.990       .  S
O2795      H2808   0.990       .  S
C2796      C4120   1.485       .  S
Zr2819     O2820   2.431       .  S
Zr2819     O2821   2.421   1_556  S
Zr2819     O2822   2.443       .  S
Zr2819     O2825   2.417       .  S
Zr2819     O2827   2.383   1_556  S
Zr2819     O2828   2.389   1_556  S
Zr2819     O2829   2.409       .  S
Zr2819     O2830   2.387       .  S
O2820      H2876   0.989       .  S
O2820      H2884   0.989       .  S
O2821      C2841   1.280       .  A
O2822      C2843   1.277       .  A
O2823     Zr2833   2.425       .  S
O2823      C2842   1.284       .  A
O2824     Zr2832   2.403       .  S
O2824      C2843   1.273       .  A
O2825      C2842   1.283       .  A
O2826     Zr2834   2.533       .  S
O2827     Zr2832   2.403   1_554  S
O2828     Zr2833   2.412   1_554  S
O2828      H2863   0.966       .  S
O2829     Zr2832   2.439       .  S
O2829     Zr2849   2.375       .  S
O2829      H2866   0.959       .  S
O2830     Zr2833   2.376       .  S
O2830     Zr2849   2.354       .  S
Zr2831     O2850   2.539   1_554  S
Zr2831     O2858   2.447       .  S
Zr2831     O2837   2.426       .  S
Zr2831     O2839   2.364   1_554  S
Zr2831     O2840   2.377   1_554  S
Zr2832     O2851   2.441       .  S
Zr2832     O2839   2.379       .  S
Zr2833     O2835   2.438       .  S
Zr2833     O2857   2.434   1_556  S
Zr2833     O2859   2.461       .  S
Zr2833     O2837   2.373   1_556  S
Zr2833     O2840   2.398       .  S
Zr2834     O2860   2.435       .  S
Zr2834     O2861   2.436       .  S
Zr2834     O2836   2.437       .  S
Zr2834     O2838   2.431       .  S
O2835      H2872   0.990       .  S
O2836      H2867   0.990       .  S
O2836      H2881   0.990       .  S
O2838      H2864   0.966       .  S
O2839     Zr2849   2.368       .  S
O2840     Zr2849   2.366       .  S
O2840      H2865   0.964       .  S
C2841      C4050   1.515       .  S
C2842      C4060   1.456       .  S
C2843      C4243   1.460       .  S
O2844      H2880   0.991       .  S
O2845      C2847   1.284       .  A
O2846      C2847   1.267       .  A
C2847      C4080   1.479       .  S
O2848     Zr2849   2.436       .  S
O2848      H2877   0.990       .  S
Zr2849     O2852   2.433       .  S
Zr2849     O2853   2.439       .  S
Zr2849     O2854   2.394       .  S
O2850      C2855   1.305       .  A
O2851      H2868   0.990       .  S
O2851      H2883   0.991       .  S
O2852      H2869   0.990       .  S
O2853      H2873   0.990       .  S
O2853      H2882   0.990       .  S
O2854      C2855   1.276       .  A
C2855      C4070   1.506       .  S
O2856      H2875   0.991       .  S
O2856      H2879   0.990       .  S
O2857      H2871   0.990       .  S
O2857      H2878   0.990       .  S
O2858      C2862   1.288       .  A
O2859      C2862   1.288   1_556  A
O2860      H2870   0.990       .  S
O2861      H2874   0.990       .  S
C2862      C4123   1.491       .  S
Zr2885     O2886   2.440       .  S
Zr2885     O2887   2.472       .  S
Zr2885     O2888   2.424       .  S
Zr2885     O2891   2.394       .  S
Zr2885     O2893   2.370       .  S
Zr2885     O2894   2.395       .  S
Zr2885     O2895   2.423       .  S
Zr2885     O2896   2.426       .  S
O2886      H2942   0.990       .  S
O2886      H2950   0.989       .  S
O2887      C2907   1.282       .  A
O2888      C2909   1.283       .  A
O2889     Zr2899   2.514       .  S
O2889      C2908   1.293       .  A
O2890     Zr2898   2.452       .  S
O2890      C2909   1.285       .  A
O2891      C2908   1.272       .  A
O2892     Zr2900   2.382       .  S
O2892      C2907   1.266       .  A
O2893     Zr2898   2.380       .  S
O2893     Zr2900   2.385       .  S
O2894     Zr2899   2.392       .  S
O2894     Zr2900   2.385       .  S
O2894      H2929   0.966       .  S
O2895     Zr2898   2.395       .  S
O2895     Zr2915   2.429       .  S
O2895      H2932   0.965       .  S
O2896     Zr2899   2.402       .  S
O2896     Zr2915   2.434       .  S
Zr2897     O2922   2.437       .  S
Zr2897     O2916   2.397       .  S
Zr2897     O2924   2.399       .  S
Zr2897     O2912   2.424       .  S
Zr2897     O2903   2.385       .  S
Zr2897     O2904   2.383       .  S
Zr2897     O2905   2.375       .  S
Zr2897     O2906   2.384       .  S
Zr2898     O2917   2.436       .  S
Zr2898     O2910   2.436       .  S
Zr2898     O2911   2.411       .  S
Zr2898     O2904   2.412       .  S
Zr2898     O2905   2.402       .  S
Zr2899     O2901   2.435       .  S
Zr2899     O2923   2.435       .  S
Zr2899     O2925   2.474       .  S
Zr2899     O2903   2.411       .  S
Zr2899     O2906   2.417       .  S
Zr2900     O2926   2.438       .  S
Zr2900     O2927   2.436       .  S
Zr2900     O2902   2.436       .  S
Zr2900     O2903   2.381       .  S
Zr2900     O2904   2.372       .  S
O2901      H2938   0.990       .  S
O2902      H2933   0.990       .  S
O2902      H2947   0.990       .  S
O2904      H2930   0.966       .  S
O2905     Zr2915   2.357       .  S
O2906     Zr2915   2.364       .  S
O2906      H2931   0.966       .  S
C2907      C4203   1.491       .  S
C2908      C4163   1.518       .  S
C2909      C2994   1.480       .  S
O2910      H2946   0.990       .  S
O2911      C2913   1.280       .  A
O2912      C2913   1.283       .  A
C2913      C4113   1.452       .  S
O2914     Zr2915   2.436       .  S
O2914      H2943   0.990       .  S
Zr2915     O2918   2.438       .  S
Zr2915     O2919   2.436       .  S
Zr2915     O2920   2.508       .  S
O2916      C2921   1.274       .  A
O2917      H2934   0.990       .  S
O2917      H2949   0.990       .  S
O2918      H2935   0.990       .  S
O2919      H2939   0.990       .  S
O2919      H2948   0.989       .  S
O2920      C2921   1.298       .  A
C2921      C4073   1.515       .  S
O2922      H2941   0.990       .  S
O2922      H2945   0.990       .  S
O2923      H2937   0.990       .  S
O2923      H2944   0.990       .  S
O2924      C2928   1.283       .  A
O2925      C2928   1.290       .  A
O2926      H2936   0.990       .  S
O2927      H2940   0.990       .  S
C2928      C2975   1.481       .  S
Zr2951     O2953   2.426       .  S
Zr2951     O2957   2.374       .  S
Zr2951     O2959   2.378       .  S
Zr2951     O2960   2.394       .  S
Zr2951     O2961   2.397       .  S
Zr2951     O2962   2.402       .  S
O2952      H3008   0.989       .  S
O2952      H3016   0.990       .  S
O2953      C2973   1.275       .  A
O2954      C2975   1.278       .  A
O2955     Zr2965   2.492       .  S
O2955      C2974   1.296       .  A
O2956      C2975   1.289       .  A
O2957      C2974   1.275       .  A
O2958     Zr2966   2.415       .  S
O2958      C2973   1.269       .  A
O2959     Zr2964   2.371       .  S
O2959     Zr2966   2.387       .  S
O2960     Zr2965   2.385       .  S
O2960     Zr2966   2.359       .  S
O2960      H2995   0.963       .  S
O2961     Zr2964   2.398       .  S
O2961     Zr2981   2.408       .  S
O2961      H2998   0.966       .  S
O2962     Zr2965   2.400       .  S
O2962     Zr2981   2.414       .  S
Zr2963     O2988   2.437       .  S
Zr2963     O2982   2.439       .  S
Zr2963     O2990   2.413       .  S
Zr2963     O2978   2.428       .  S
Zr2963     O2969   2.410       .  S
Zr2963     O2970   2.409       .  S
Zr2963     O2971   2.382       .  S
Zr2963     O2972   2.380       .  S
Zr2964     O2983   2.436       .  S
Zr2964     O2976   2.433       .  S
Zr2964     O2977   2.417       .  S
Zr2964     O2970   2.421       .  S
Zr2964     O2971   2.414       .  S
Zr2965     O2967   2.433       .  S
Zr2965     O2989   2.439       .  S
Zr2965     O2991   2.463       .  S
Zr2965     O2969   2.415       .  S
Zr2965     O2972   2.407       .  S
Zr2966     O2992   2.438       .  S
Zr2966     O2993   2.438       .  S
Zr2966     O2968   2.440       .  S
Zr2966     O2969   2.395       .  S
Zr2966     O2970   2.358       .  S
O2967      H3004   0.990       .  S
O2968      H2999   0.989       .  S
O2968      H3013   0.990       .  S
O2970      H2996   0.961       .  S
O2971     Zr2981   2.378       .  S
O2972     Zr2981   2.363       .  S
O2972      H2997   0.966       .  S
C2973      C4083   1.459       .  S
C2974      C4133   1.481       .  S
O2976      H3012   0.991       .  S
O2977      C2979   1.282       .  A
O2978      C2979   1.285       .  A
C2979      C4173   1.457       .  S
O2980     Zr2981   2.435       .  S
O2980      H3009   0.990       .  S
Zr2981     O2984   2.434       .  S
Zr2981     O2985   2.440       .  S
Zr2981     O2986   2.451       .  S
O2982      C2987   1.281       .  A
O2983      H3000   0.990       .  S
O2983      H3015   0.990       .  S
O2984      H3001   0.990       .  S
O2985      H3005   0.990       .  S
O2985      H3014   0.990       .  S
O2986      C2987   1.288       .  A
C2987      C4223   1.494       .  S
O2988      H3007   0.989       .  S
O2988      H3011   0.990       .  S
O2989      H3003   0.989       .  S
O2989      H3010   0.990       .  S
O2990      C2994   1.282       .  A
O2991      C2994   1.289       .  A
O2992      H3002   0.990       .  S
O2993      H3006   0.990       .  S
Zr3017     O3018   2.437       .  S
Zr3017     O3019   2.477       .  S
Zr3017     O3020   2.417       .  S
Zr3017     O3023   2.399       .  S
Zr3017     O3025   2.381       .  S
Zr3017     O3026   2.388       .  S
Zr3017     O3027   2.421       .  S
Zr3017     O3028   2.421       .  S
O3018      H3074   0.990       .  S
O3018      H3082   0.990       .  S
O3019      C3039   1.284       .  A
O3020      C3041   1.281       .  A
O3021     Zr3031   2.444       .  S
O3021      C3040   1.287       .  A
O3022     Zr3030   2.499       .  S
O3022      C3041   1.296       .  A
O3023      C3040   1.279       .  A
O3024     Zr3032   2.401       .  S
O3024      C3039   1.271       .  A
O3025     Zr3030   2.374       .  S
O3025     Zr3032   2.378       .  S
O3026     Zr3031   2.365       .  S
O3026     Zr3032   2.360       .  S
O3026      H3061   0.965       .  S
O3027     Zr3030   2.394       .  S
O3027     Zr3047   2.444       .  S
O3027      H3064   0.966       .  S
O3028     Zr3031   2.394       .  S
O3028     Zr3047   2.435       .  S
Zr3029     O3054   2.441       .  S
Zr3029     O3048   2.461       .  S
Zr3029     O3056   2.411       .  S
Zr3029     O3044   2.460       .  S
Zr3029     O3035   2.414       .  S
Zr3029     O3036   2.405       .  S
Zr3029     O3037   2.380       .  S
Zr3029     O3038   2.387       .  S
Zr3030     O3049   2.438       .  S
Zr3030     O3042   2.439       .  S
Zr3030     O3043   2.438       .  S
Zr3030     O3036   2.417       .  S
Zr3030     O3037   2.421       .  S
Zr3031     O3033   2.435       .  S
Zr3031     O3055   2.436       .  S
Zr3031     O3057   2.414       .  S
Zr3031     O3035   2.411       .  S
Zr3031     O3038   2.386       .  S
Zr3032     O3058   2.438       .  S
Zr3032     O3059   2.434       .  S
Zr3032     O3034   2.439       .  S
Zr3032     O3035   2.389       .  S
Zr3032     O3036   2.359       .  S
O3033      H3070   0.990       .  S
O3034      H3065   0.990       .  S
O3034      H3079   0.990       .  S
O3036      H3062   0.961       .  S
O3037     Zr3047   2.385       .  S
O3038     Zr3047   2.348       .  S
O3038      H3063   0.962       .  S
C3039      C4043   1.500       .  S
C3040      C4023   1.469       .  S
C3041      C4030   1.497       .  S
O3042      H3078   0.990       .  S
O3043      C3045   1.285       .  A
O3044      C3045   1.291       .  A
C3045      C4013   1.480       .  S
O3046     Zr3047   2.436       .  S
O3046      H3075   0.990       .  S
Zr3047     O3050   2.435       .  S
Zr3047     O3051   2.438       .  S
Zr3047     O3052   2.526       .  S
O3048      C3053   1.288       .  A
O3049      H3066   0.990       .  S
O3049      H3081   0.990       .  S
O3050      H3067   0.990       .  S
O3051      H3071   0.990       .  S
O3051      H3080   0.990       .  S
O3052      C3053   1.300       .  A
C3053      C4393   1.526       .  S
O3054      H3073   0.989       .  S
O3054      H3077   0.989       .  S
O3055      H3069   0.990       .  S
O3055      H3076   0.990       .  S
O3056      C3060   1.280       .  A
O3057      C3060   1.277       .  A
O3058      H3068   0.990       .  S
O3059      H3072   0.990       .  S
C3060      C4103   1.459       .  S
Zr3083     O3085   2.487       .  S
Zr3083     O3086   2.457       .  S
Zr3083     O3091   2.367       .  S
Zr3083     O3092   2.396       .  S
Zr3083     O3093   2.416       .  S
Zr3083     O3094   2.439       .  S
O3084      H3140   0.990       .  S
O3084      H3148   0.990       .  S
O3085      C3105   1.293       .  A
O3086      C3107   1.286       .  A
O3087     Zr3097   2.427       .  S
O3088     Zr3096   2.457       .  S
O3088      C3107   1.285       .  A
O3089      C3106   1.280       .  A
O3090     Zr3098   2.387       .  S
O3090      C3105   1.276       .  A
O3091     Zr3096   2.374       .  S
O3091     Zr3098   2.394       .  S
O3092     Zr3097   2.416       .  S
O3092     Zr3098   2.358       .  S
O3092      H3127   0.964       .  S
O3093     Zr3096   2.389       .  S
O3093      H3130   0.966       .  S
O3094     Zr3097   2.420       .  S
Zr3095     O3120   2.436       .  S
Zr3095     O3114   2.394       .  S
Zr3095     O3122   2.402       .  S
Zr3095     O3110   2.415       .  S
Zr3095     O3101   2.389       .  S
Zr3095     O3102   2.392       .  S
Zr3095     O3103   2.377       .  S
Zr3095     O3104   2.377       .  S
Zr3096     O3115   2.439       .  S
Zr3096     O3108   2.434       .  S
Zr3096     O3109   2.395       .  S
Zr3096     O3102   2.414       .  S
Zr3096     O3103   2.402       .  S
Zr3097     O3121   2.437       .  S
Zr3097     O3123   2.450       .  S
Zr3097     O3101   2.394       .  S
Zr3097     O3104   2.392       .  S
Zr3098     O3124   2.440       .  S
Zr3098     O3125   2.432       .  S
Zr3098     O3100   2.437       .  S
Zr3098     O3101   2.385       .  S
Zr3098     O3102   2.369       .  S
O3099      H3136   0.990       .  S
O3100      H3131   0.990       .  S
O3100      H3145   0.990       .  S
O3102      H3128   0.966       .  S
O3104      H3129   0.964       .  S
C3105      C3990   1.482       .  S
C3106      C4000   1.457       .  S
C3107      C4033   1.518       .  S
O3108      H3144   0.990       .  S
O3109      C3111   1.273       .  A
O3110      C3111   1.280       .  A
C3111      C3983   1.435       .  S
O3112     Zr3113   2.435       .  S
O3112      H3141   0.990       .  S
Zr3113     O3116   2.435       .  S
Zr3113     O3117   2.436       .  S
Zr3113     O3118   2.552       .  S
O3114      C3119   1.277       .  A
O3115      H3132   0.990       .  S
O3115      H3147   0.990       .  S
O3116      H3133   0.990       .  S
O3117      H3137   0.991       .  S
O3117      H3146   0.990       .  S
C3119      C4363   1.513       .  S
O3120      H3139   0.990       .  S
O3120      H3143   0.990       .  S
O3121      H3135   0.990       .  S
O3121      H3142   0.990       .  S
O3122      C3126   1.286       .  A
O3123      C3126   1.287       .  A
O3124      H3134   0.990       .  S
O3125      H3138   0.990       .  S
C3126      C4193   1.474   1_545  S
Zr3149     O3150   2.440       .  S
Zr3149     O3151   2.538       .  S
Zr3149     O3152   2.427       .  S
Zr3149     O3155   2.381       .  S
Zr3149     O3157   2.366       .  S
Zr3149     O3158   2.383       .  S
Zr3149     O3159   2.444       .  S
Zr3149     O3160   2.440       .  S
O3150      H3206   0.990       .  S
O3150      H3214   0.990       .  S
O3151      C3171   1.303       .  A
O3152      C3173   1.281       .  A
O3153     Zr3163   2.451       .  S
O3153      C3172   1.279       .  A
O3154     Zr3162   2.477       .  S
O3154      C3173   1.291       .  A
O3155      C3172   1.270       .  A
O3156     Zr3164   2.391       .  S
O3156      C3171   1.273       .  A
O3157     Zr3162   2.398       .  S
O3157     Zr3164   2.373       .  S
O3158     Zr3163   2.392       .  S
O3158     Zr3164   2.356       .  S
O3158      H3193   0.964       .  S
O3159     Zr3162   2.386       .  S
O3159     Zr3179   2.466       .  S
O3159      H3196   0.966       .  S
O3160     Zr3163   2.383       .  S
O3160     Zr3179   2.440       .  S
Zr3161     O3186   2.452       .  S
Zr3161     O3180   2.438       .  S
Zr3161     O3188   2.419       .  S
Zr3161     O3176   2.470   1_655  S
Zr3161     O3167   2.416       .  S
Zr3161     O3168   2.413       .  S
Zr3161     O3169   2.390       .  S
Zr3161     O3170   2.400       .  S
Zr3162     O3181   2.437   1_655  S
Zr3162     O3174   2.440   1_655  S
Zr3162     O3175   2.419   1_655  S
Zr3162     O3168   2.421       .  S
Zr3162     O3169   2.425       .  S
Zr3163     O3165   2.433       .  S
Zr3163     O3187   2.436       .  S
Zr3163     O3189   2.409       .  S
Zr3163     O3167   2.410       .  S
Zr3163     O3170   2.402       .  S
Zr3164     O3190   2.437       .  S
Zr3164     O3191   2.433       .  S
Zr3164     O3166   2.443       .  S
Zr3164     O3167   2.374       .  S
Zr3164     O3168   2.338       .  S
O3165      H3202   0.990       .  S
O3166      H3197   0.990       .  S
O3166      H3211   0.990       .  S
O3168      H3194   0.953       .  S
O3169     Zr3179   2.374       .  S
O3170     Zr3179   2.354       .  S
O3170      H3195   0.964       .  S
C3171      C3970   1.518       .  S
C3172      C3953   1.483       .  S
C3173      C3960   1.490       .  S
O3174      H3210   0.990       .  S
O3175      C3177   1.276       .  A
O3176      C3177   1.285       .  A
C3177      C3940   1.487       .  S
O3178     Zr3179   2.437       .  S
O3178      H3207   0.990       .  S
Zr3179     O3182   2.436   1_655  S
Zr3179     O3183   2.436       .  S
Zr3179     O3184   2.552       .  S
O3180      C3185   1.281       .  A
O3181      H3198   0.990       .  S
O3181      H3213   0.990       .  S
O3182      H3199   0.990       .  S
O3183      H3203   0.990       .  S
O3183      H3212   0.989       .  S
O3184      C3185   1.305       .  A
C3185      C4283   1.530       .  S
O3186      H3205   0.989       .  S
O3186      H3209   0.989       .  S
O3187      H3201   0.990       .  S
O3187      H3208   0.990       .  S
O3188      C3192   1.282       .  A
O3189      C3192   1.268       .  A
O3190      H3200   0.990       .  S
O3191      H3204   0.989       .  S
C3192      C4153   1.454       .  S
Zr3215     O3216   2.440       .  S
Zr3215     O3217   2.515       .  S
Zr3215     O3218   2.417       .  S
Zr3215     O3221   2.384       .  S
Zr3215     O3223   2.368       .  S
Zr3215     O3224   2.375       .  S
Zr3215     O3225   2.428       .  S
Zr3215     O3226   2.423       .  S
O3216      H3272   0.990       .  S
O3216      H3280   0.990       .  S
O3217      C3237   1.301       .  A
O3218      C3239   1.280       .  A
O3219     Zr3229   2.430       .  S
O3219      C3238   1.282       .  A
O3220     Zr3228   2.480       .  S
O3220      C3239   1.291       .  A
O3221      C3238   1.276       .  A
O3222     Zr3230   2.399       .  S
O3222      C3237   1.277       .  A
O3223     Zr3228   2.396       .  S
O3223     Zr3230   2.379       .  S
O3224     Zr3229   2.390       .  S
O3224     Zr3230   2.381       .  S
O3224      H3259   0.965       .  S
O3225     Zr3228   2.395       .  S
O3225     Zr3245   2.448       .  S
O3225      H3262   0.966       .  S
O3226     Zr3229   2.384       .  S
O3226     Zr3245   2.429       .  S
Zr3227     O3252   2.437       .  S
Zr3227     O3246   2.407       .  S
Zr3227     O3254   2.404       .  S
Zr3227     O3242   2.399   1_655  S
Zr3227     O3233   2.390       .  S
Zr3227     O3234   2.412       .  S
Zr3227     O3235   2.380       .  S
Zr3227     O3236   2.377       .  S
Zr3228     O3247   2.434   1_655  S
Zr3228     O3240   2.434   1_655  S
Zr3228     O3241   2.435   1_655  S
Zr3228     O3234   2.429       .  S
Zr3228     O3235   2.409       .  S
Zr3229     O3231   2.435       .  S
Zr3229     O3253   2.441       .  S
Zr3229     O3255   2.415       .  S
Zr3229     O3233   2.391       .  S
Zr3229     O3236   2.385       .  S
Zr3230     O3256   2.434       .  S
Zr3230     O3257   2.435       .  S
Zr3230     O3232   2.437       .  S
Zr3230     O3233   2.380       .  S
Zr3230     O3234   2.366       .  S
O3231      H3268   0.990       .  S
O3232      H3263   0.990       .  S
O3232      H3277   0.990       .  S
O3234      H3260   0.965       .  S
O3235     Zr3245   2.360       .  S
O3236     Zr3245   2.361       .  S
O3236      H3261   0.966       .  S
C3237      C3920   1.514       .  S
C3238      C3930   1.461       .  S
C3239      C3963   1.487       .  S
O3240      H3276   0.990       .  S
O3241      C3243   1.281       .  A
O3242      C3243   1.272       .  A
C3243      C3910   1.479       .  S
O3244     Zr3245   2.435       .  S
O3244      H3273   0.990       .  S
Zr3245     O3248   2.435   1_655  S
Zr3245     O3249   2.438       .  S
Zr3245     O3250   2.528       .  S
O3246      C3251   1.279       .  A
O3247      H3264   0.990       .  S
O3247      H3279   0.990       .  S
O3248      H3265   0.990       .  S
O3249      H3269   0.990       .  S
O3249      H3278   0.990       .  S
O3250      C3251   1.302       .  A
C3251      C4233   1.506       .  S
O3252      H3271   0.990       .  S
O3252      H3275   0.990       .  S
O3253      H3267   0.990       .  S
O3253      H3274   0.990       .  S
O3254      C3258   1.275       .  A
O3255      C3258   1.281       .  A
O3256      H3266   0.990       .  S
O3257      H3270   0.989       .  S
C3258      C4063   1.456       .  S
Zr3281     O3287   2.462       .  S
Zr3281     O3289   2.387       .  S
Zr3281     O3290   2.393   1_554  S
Zr3281     O3291   2.414       .  S
Zr3281     O3292   2.355   1_554  S
O3282      H3338   0.989       .  S
O3282      H3346   0.990       .  S
O3284      C3305   1.287       .  A
O3285     Zr3295   2.429       .  S
O3285      C3304   1.285       .  A
O3286      C3305   1.289       .  A
O3287      C3304   1.290   1_554  A
O3288     Zr3296   2.458   1_554  S
O3288      C3303   1.288       .  A
O3289     Zr3294   2.415       .  S
O3289     Zr3296   2.368   1_554  S
O3290     Zr3295   2.393       .  S
O3290     Zr3296   2.389       .  S
O3290      H3325   0.964       .  S
O3291     Zr3294   2.417       .  S
O3291     Zr3311   2.397   1_554  S
O3292     Zr3295   2.375       .  S
O3292     Zr3311   2.338       .  S
Zr3293     O3318   2.438       .  S
Zr3293     O3312   2.444       .  S
Zr3293     O3320   2.417       .  S
Zr3293     O3308   2.384       .  S
Zr3293     O3299   2.394       .  S
Zr3293     O3300   2.410       .  S
Zr3293     O3301   2.381       .  S
Zr3293     O3302   2.367       .  S
Zr3294     O3313   2.439       .  S
Zr3294     O3306   2.435       .  S
Zr3294     O3307   2.534   1_554  S
Zr3294     O3300   2.407   1_554  S
Zr3294     O3301   2.386   1_554  S
Zr3295     O3297   2.437       .  S
Zr3295     O3319   2.441       .  S
Zr3295     O3321   2.451       .  S
Zr3295     O3299   2.388       .  S
Zr3295     O3302   2.388       .  S
Zr3296     O3322   2.435       .  S
Zr3296     O3323   2.435       .  S
Zr3296     O3298   2.439   1_556  S
Zr3296     O3299   2.414       .  S
Zr3296     O3300   2.413       .  S
O3297      H3334   0.990       .  S
O3298      H3329   0.990       .  S
O3298      H3343   0.989       .  S
O3300      H3326   0.966       .  S
O3301     Zr3311   2.370       .  S
O3302     Zr3311   2.388       .  S
O3302      H3327   0.965       .  S
C3304      C4003   1.484       .  S
C3305      C3371   1.488       .  S
O3307      C3309   1.303       .  A
O3308      C3309   1.275       .  A
C3309      C3923   1.513       .  S
O3310     Zr3311   2.437       .  S
O3310      H3339   0.990   1_556  S
Zr3311     O3314   2.434       .  S
Zr3311     O3315   2.439       .  S
Zr3311     O3316   2.376       .  S
O3312      C3317   1.285       .  A
O3314      H3331   0.990       .  S
O3315      H3335   0.990       .  S
O3315      H3344   0.990       .  S
O3316      C3317   1.273       .  A
C3317      C3950   1.452       .  S
O3318      H3337   0.990       .  S
O3318      H3341   0.990       .  S
O3319      H3333   0.990       .  S
O3319      H3340   0.990       .  S
O3320      C3324   1.284       .  A
O3321      C3324   1.284       .  A
O3322      H3332   0.990       .  S
O3323      H3336   0.990       .  S
C3324      C3390   1.474       .  S
Zr3347     O3348   2.440       .  S
Zr3347     O3349   2.420       .  S
Zr3347     O3350   2.417       .  S
Zr3347     O3353   2.425       .  S
Zr3347     O3355   2.379       .  S
Zr3347     O3356   2.387       .  S
Zr3347     O3357   2.402       .  S
Zr3347     O3358   2.382       .  S
O3348      H3404   0.990       .  S
O3348      H3412   0.990       .  S
O3349      C3369   1.282       .  A
O3350      C3371   1.283       .  A
O3351     Zr3361   2.431       .  S
O3351      C3370   1.284       .  A
O3352     Zr3360   2.490       .  S
O3352      C3371   1.296       .  A
O3353      C3370   1.287       .  A
O3354     Zr3362   2.473       .  S
O3354      C3369   1.292       .  A
O3355     Zr3360   2.407       .  S
O3355     Zr3362   2.361       .  S
O3356     Zr3361   2.404       .  S
O3356     Zr3362   2.377       .  S
O3356      H3391   0.966       .  S
O3357     Zr3360   2.418       .  S
O3357     Zr3377   2.395       .  S
O3357      H3394   0.966       .  S
O3358     Zr3361   2.402       .  S
O3358     Zr3377   2.364       .  S
Zr3359     O3384   2.442       .  S
Zr3359     O3378   2.430       .  S
Zr3359     O3386   2.391       .  S
Zr3359     O3374   2.369       .  S
Zr3359     O3365   2.397       .  S
Zr3359     O3366   2.402       .  S
Zr3359     O3367   2.374       .  S
Zr3359     O3368   2.376       .  S
Zr3360     O3379   2.433       .  S
Zr3360     O3372   2.435       .  S
Zr3360     O3373   2.547       .  S
Zr3360     O3366   2.402       .  S
Zr3360     O3367   2.376       .  S
Zr3361     O3363   2.438       .  S
Zr3361     O3385   2.437       .  S
Zr3361     O3387   2.485       .  S
Zr3361     O3365   2.389       .  S
Zr3361     O3368   2.381       .  S
Zr3362     O3388   2.435       .  S
Zr3362     O3389   2.434       .  S
Zr3362     O3364   2.435       .  S
Zr3362     O3365   2.415       .  S
Zr3362     O3366   2.414       .  S
O3363      H3400   0.990       .  S
O3364      H3395   0.990       .  S
O3364      H3409   0.990       .  S
O3366      H3392   0.966       .  S
O3367     Zr3377   2.378       .  S
O3368     Zr3377   2.383       .  S
O3368      H3393   0.965       .  S
C3369      C3993   1.495       .  S
C3370      C4020   1.475       .  S
O3372      H3408   0.990       .  S
O3373      C3375   1.308       .  A
O3374      C3375   1.274       .  A
C3375      C3973   1.511       .  S
O3376     Zr3377   2.434       .  S
O3376      H3405   0.990       .  S
Zr3377     O3380   2.436       .  S
Zr3377     O3381   2.436       .  S
Zr3377     O3382   2.389       .  S
O3378      C3383   1.281       .  A
O3379      H3396   0.989       .  S
O3379      H3411   0.990       .  S
O3380      H3397   0.989       .  S
O3381      H3401   0.990       .  S
O3381      H3410   0.990       .  S
O3382      C3383   1.269       .  A
C3383      C3933   1.454       .  S
O3384      H3403   0.990       .  S
O3384      H3407   0.990       .  S
O3385      H3399   0.990       .  S
O3385      H3406   0.989       .  S
O3386      C3390   1.278       .  A
O3387      C3390   1.292       .  A
O3388      H3398   0.990       .  S
O3389      H3402   0.990       .  S
Zr3413     O3414   2.431       .  S
Zr3413     O3415   2.406       .  S
Zr3413     O3416   2.411       .  S
Zr3413     O3419   2.432       .  S
Zr3413     O3421   2.374       .  S
Zr3413     O3422   2.377       .  S
Zr3413     O3423   2.414       .  S
Zr3413     O3424   2.378       .  S
O3414      H3470   0.990       .  S
O3414      H3478   0.989       .  S
O3415      C3435   1.280       .  A
O3416      C3437   1.266       .  A
O3417     Zr3427   2.406       .  S
O3417      C3436   1.281       .  A
O3418     Zr3426   2.416       .  S
O3418      C3437   1.272       .  A
O3419      C3436   1.285       .  A
O3420     Zr3428   2.547       .  S
O3420      C3435   1.302       .  A
O3421     Zr3426   2.393       .  S
O3421     Zr3428   2.334       .  S
O3422     Zr3427   2.394       .  S
O3422     Zr3428   2.380       .  S
O3422      H3457   0.966       .  S
O3423     Zr3426   2.433       .  S
O3423     Zr3443   2.390       .  S
O3423      H3460   0.966       .  S
O3424     Zr3427   2.384       .  S
O3424     Zr3443   2.363       .  S
Zr3425     O3450   2.436       .  S
Zr3425     O3444   2.475       .  S
Zr3425     O3452   2.444       .  S
Zr3425     O3440   2.414       .  S
Zr3425     O3431   2.419       .  S
Zr3425     O3432   2.438       .  S
Zr3425     O3433   2.375       .  S
Zr3425     O3434   2.379       .  S
Zr3426     O3445   2.441       .  S
Zr3426     O3438   2.434       .  S
Zr3426     O3439   2.452       .  S
Zr3426     O3432   2.409       .  S
Zr3426     O3433   2.365       .  S
Zr3427     O3429   2.440   1_545  S
Zr3427     O3451   2.436   1_545  S
Zr3427     O3453   2.436       .  S
Zr3427     O3431   2.382       .  S
Zr3427     O3434   2.392       .  S
Zr3428     O3454   2.435   1_545  S
Zr3428     O3455   2.435       .  S
Zr3428     O3430   2.435       .  S
Zr3428     O3431   2.447       .  S
Zr3428     O3432   2.448       .  S
O3429      H3466   0.990       .  S
O3430      H3461   0.990       .  S
O3430      H3475   0.990       .  S
O3432      H3458   0.966       .  S
O3433     Zr3443   2.355       .  S
O3434     Zr3443   2.376       .  S
O3434      H3459   0.964       .  S
C3435      C4183   1.532       .  S
C3436      C4350   1.467   1_545  S
C3437      C3980   1.433       .  S
O3438      H3474   0.990       .  S
O3439      C3441   1.284       .  A
O3440      C3441   1.278       .  A
C3441      C3883   1.490       .  S
O3442     Zr3443   2.434       .  S
O3442      H3471   0.990       .  S
Zr3443     O3446   2.435       .  S
Zr3443     O3447   2.439       .  S
Zr3443     O3448   2.392       .  S
O3444      C3449   1.291       .  A
O3445      H3462   0.990       .  S
O3445      H3477   0.990       .  S
O3446      H3463   0.990       .  S
O3447      H3467   0.990       .  S
O3447      H3476   0.990       .  S
O3448      C3449   1.278       .  A
C3449      C3903   1.479       .  S
O3450      H3469   0.990       .  S
O3450      H3473   0.990       .  S
O3451      H3465   0.990       .  S
O3451      H3472   0.990       .  S
O3452      C3456   1.288       .  A
O3453      C3456   1.282       .  A
O3454      H3464   0.990       .  S
O3455      H3468   0.990       .  S
C3456      C3893   1.486       .  S
Zr3479     O3480   2.439       .  S
Zr3479     O3481   2.414       .  S
Zr3479     O3482   2.455       .  S
Zr3479     O3485   2.438       .  S
Zr3479     O3487   2.380       .  S
Zr3479     O3488   2.394       .  S
Zr3479     O3489   2.410       .  S
Zr3479     O3490   2.368       .  S
O3480      H3536   0.988       .  S
O3480      H3544   0.990       .  S
O3481      C3501   1.275       .  A
O3482      C3503   1.279       .  A
O3483     Zr3493   2.428       .  S
O3483      C3502   1.284       .  A
O3484     Zr3492   2.417       .  S
O3484      C3503   1.276       .  A
O3485      C3502   1.286       .  A
O3486     Zr3494   2.506       .  S
O3486      C3501   1.294       .  A
O3487     Zr3492   2.400       .  S
O3487     Zr3494   2.358       .  S
O3488     Zr3493   2.410       .  S
O3488     Zr3494   2.380       .  S
O3488      H3523   0.966       .  S
O3489     Zr3492   2.422       .  S
O3489     Zr3509   2.376       .  S
O3489      H3526   0.956       .  S
O3490     Zr3493   2.373       .  S
O3490     Zr3509   2.344       .  S
Zr3491     O3516   2.440       .  S
Zr3491     O3510   2.511       .  S
Zr3491     O3518   2.416       .  S
Zr3491     O3506   2.388       .  S
Zr3491     O3497   2.422       .  S
Zr3491     O3498   2.432       .  S
Zr3491     O3499   2.370       .  S
Zr3491     O3500   2.362       .  S
Zr3492     O3511   2.437       .  S
Zr3492     O3504   2.435       .  S
Zr3492     O3505   2.430       .  S
Zr3492     O3498   2.393       .  S
Zr3492     O3499   2.397       .  S
Zr3493     O3495   2.438   1_545  S
Zr3493     O3517   2.438   1_545  S
Zr3493     O3519   2.458       .  S
Zr3493     O3497   2.373       .  S
Zr3493     O3500   2.397       .  S
Zr3494     O3520   2.435   1_545  S
Zr3494     O3521   2.435       .  S
Zr3494     O3496   2.438       .  S
Zr3494     O3497   2.441       .  S
Zr3494     O3498   2.425       .  S
O3495      H3532   0.990       .  S
O3496      H3527   0.990       .  S
O3496      H3541   0.990       .  S
O3498      H3524   0.966       .  S
O3499     Zr3509   2.382       .  S
O3500     Zr3509   2.371       .  S
O3500      H3525   0.963       .  S
C3501      C4143   1.501       .  S
C3502      C4293   1.463       .  S
C3503      C3943   1.473       .  S
O3504      H3540   0.990       .  S
O3505      C3507   1.283       .  A
O3506      C3507   1.276       .  A
C3507      C3870   1.457       .  S
O3508     Zr3509   2.435       .  S
O3508      H3537   0.990       .  S
Zr3509     O3512   2.432       .  S
Zr3509     O3513   2.440       .  S
Zr3509     O3514   2.375       .  S
O3510      C3515   1.299       .  A
O3511      H3528   0.990       .  S
O3511      H3543   0.990       .  S
O3512      H3529   0.989       .  S
O3513      H3533   0.990       .  S
O3513      H3542   0.990       .  S
O3514      C3515   1.271       .  A
C3515      C3860   1.495       .  S
O3516      H3535   0.990       .  S
O3516      H3539   0.990       .  S
O3517      H3531   0.990       .  S
O3517      H3538   0.990       .  S
O3518      C3522   1.280       .  A
O3519      C3522   1.287       .  A
O3520      H3530   0.990       .  S
O3521      H3534   0.990       .  S
C3522      C3890   1.470       .  S
Zr3545     O3546   2.443       .  S
Zr3545     O3547   2.435       .  S
Zr3545     O3548   2.402       .  S
Zr3545     O3551   2.457   1_556  S
Zr3545     O3553   2.381       .  S
Zr3545     O3554   2.393       .  S
Zr3545     O3555   2.419       .  S
Zr3545     O3556   2.359       .  S
O3546      H3602   0.990       .  S
O3547      C3567   1.283       .  A
O3548      C3569   1.280       .  A
O3549     Zr3559   2.425   1_554  S
O3549      C3568   1.286       .  A
O3550     Zr3558   2.432       .  S
O3550      C3569   1.279       .  A
O3551      C3568   1.292       .  A
O3552     Zr3560   2.510       .  S
O3552      C3567   1.297       .  A
O3553     Zr3558   2.401       .  S
O3553     Zr3560   2.368       .  S
O3554     Zr3559   2.421       .  S
O3554     Zr3560   2.382       .  S
O3554      H3589   0.966       .  S
O3555     Zr3558   2.414       .  S
O3555     Zr3575   2.376       .  S
O3555      H3592   0.965       .  S
O3556     Zr3559   2.376       .  S
O3556     Zr3575   2.338       .  S
Zr3557     O3582   2.436       .  S
Zr3557     O3576   2.479       .  S
Zr3557     O3584   2.414       .  S
Zr3557     O3572   2.412       .  S
Zr3557     O3563   2.422       .  S
Zr3557     O3564   2.434       .  S
Zr3557     O3565   2.378       .  S
Zr3557     O3566   2.373       .  S
Zr3558     O3577   2.441       .  S
Zr3558     O3570   2.435       .  S
Zr3558     O3571   2.459       .  S
Zr3558     O3564   2.391       .  S
Zr3558     O3565   2.382       .  S
Zr3559     O3561   2.438   1_556  S
Zr3559     O3583   2.437       .  S
Zr3559     O3585   2.492       .  S
Zr3559     O3563   2.376       .  S
Zr3559     O3566   2.368       .  S
Zr3560     O3586   2.439       .  S
Zr3560     O3587   2.436       .  S
Zr3560     O3562   2.436       .  S
Zr3560     O3563   2.443       .  S
Zr3560     O3564   2.442       .  S
O3561      H3598   0.990       .  S
O3562      H3593   0.990       .  S
O3562      H3607   0.990       .  S
O3564      H3590   0.966       .  S
O3565     Zr3575   2.361       .  S
O3566     Zr3575   2.392       .  S
O3566      H3591   0.964       .  S
C3567      C4093   1.532       .  S
C3569      C4010   1.457       .  S
O3570      H3606   0.990       .  S
O3571      C3573   1.288       .  A
O3572      C3573   1.281       .  A
C3573      C3830   1.487       .  S
O3574      H3603   0.990       .  S
Zr3575     O3578   2.435       .  S
Zr3575     O3580   2.363       .  S
O3576      C3581   1.291       .  A
O3577      H3594   0.990       .  S
O3577      H3609   0.990       .  S
O3579      H3599   0.990       .  S
O3579      H3608   0.990       .  S
O3580      C3581   1.272       .  A
C3581      C3853   1.460       .  S
O3582      H3601   0.990       .  S
O3582      H3605   0.990       .  S
O3583      H3597   0.990       .  S
O3583      H3604   0.990       .  S
O3584      C3588   1.281       .  A
O3585      C3588   1.293       .  A
O3586      H3596   0.990       .  S
O3587      H3600   0.990       .  S
C3588      C3840   1.498       .  S
Zr3611     O3612   2.453       .  S
Zr3611     O3613   2.436   1_556  S
Zr3611     O3614   2.424       .  S
Zr3611     O3617   2.444       .  S
Zr3611     O3619   2.374   1_556  S
Zr3611     O3620   2.396   1_556  S
Zr3611     O3621   2.439       .  S
Zr3611     O3622   2.402       .  S
O3612      H3668   0.990       .  S
O3612      H3676   0.990       .  S
O3613      C3633   1.280       .  A
O3614      C3635   1.281       .  A
O3615     Zr3625   2.436       .  S
O3615      C3634   1.275       .  A
O3616     Zr3624   2.424       .  S
O3616      C3635   1.278       .  A
O3617      C3634   1.276       .  A
O3618     Zr3626   2.503       .  S
O3619     Zr3624   2.398   1_554  S
O3620     Zr3625   2.442   1_554  S
O3620      H3655   0.966       .  S
O3621     Zr3624   2.424       .  S
O3621     Zr3641   2.397       .  S
O3621      H3658   0.963       .  S
O3622     Zr3625   2.401       .  S
O3622     Zr3641   2.362       .  S
Zr3623     O3642   2.513       .  S
Zr3623     O3650   2.443       .  S
Zr3623     O3629   2.421   1_556  S
Zr3623     O3631   2.360       .  S
Zr3623     O3632   2.373       .  S
Zr3624     O3643   2.435       .  S
Zr3624     O3631   2.373       .  S
Zr3625     O3627   2.440       .  S
Zr3625     O3649   2.438   1_556  S
Zr3625     O3651   2.476       .  S
Zr3625     O3629   2.384   1_556  S
Zr3625     O3632   2.406       .  S
Zr3626     O3652   2.437       .  S
Zr3626     O3653   2.436       .  S
Zr3626     O3628   2.439       .  S
Zr3626     O3630   2.415       .  S
O3627      H3664   0.990       .  S
O3628      H3659   0.990       .  S
O3628      H3673   0.990       .  S
O3630      H3656   0.966       .  S
O3631     Zr3641   2.345       .  S
O3632     Zr3641   2.387       .  S
O3632      H3657   0.962       .  S
C3633      C4053   1.517       .  S
C3634      C4250   1.467       .  S
C3635      C3913   1.477       .  S
O3636      H3672   0.990       .  S
O3637      C3639   1.281       .  A
O3638      C3639   1.269       .  A
C3639      C3820   1.480       .  S
O3640     Zr3641   2.438       .  S
O3640      H3669   0.991       .  S
Zr3641     O3644   2.443       .  S
Zr3641     O3645   2.445       .  S
Zr3641     O3646   2.404       .  S
O3642      C3647   1.298       .  A
O3643      H3660   0.989       .  S
O3643      H3675   0.989       .  S
O3644      H3661   0.990       .  S
O3645      H3665   0.990       .  S
O3645      H3674   0.990       .  S
O3646      C3647   1.276       .  A
C3647      C3810   1.497       .  S
O3648      H3667   0.990       .  S
O3648      H3671   0.990       .  S
O3649      H3663   0.990       .  S
O3649      H3670   0.990       .  S
O3650      C3654   1.287       .  A
O3651      C3654   1.291       .  A
O3652      H3662   0.990       .  S
O3653      H3666   0.990       .  S
C3654      C3843   1.495       .  S
Zr3677     O3678   2.438       .  S
Zr3677     O3679   2.448       .  S
Zr3677     O3680   2.368       .  S
Zr3677     O3683   2.360       .  S
Zr3677     O3685   2.378       .  S
Zr3677     O3686   2.383       .  S
Zr3677     O3687   2.400       .  S
Zr3677     O3688   2.403       .  S
O3678      H3734   0.989       .  S
O3678      H3742   0.990       .  S
O3679      C3699   1.279       .  A
O3680      C3701   1.274       .  A
O3681     Zr3691   2.532       .  S
O3681      C3700   1.303       .  A
O3682     Zr3690   2.513       .  S
O3682      C3701   1.298       .  A
O3683      C3700   1.272       .  A
O3684     Zr3692   2.399       .  S
O3684      C3699   1.268       .  A
O3685     Zr3690   2.377       .  S
O3685     Zr3692   2.387       .  S
O3686     Zr3691   2.376       .  S
O3686     Zr3692   2.383       .  S
O3686      H3721   0.965       .  S
O3687     Zr3690   2.388       .  S
O3687     Zr3707   2.420       .  S
O3687      H3724   0.966       .  S
O3688     Zr3691   2.394       .  S
O3688     Zr3707   2.427       .  S
Zr3689     O3714   2.444       .  S
Zr3689     O3708   2.430       .  S
Zr3689     O3716   2.431       .  S
Zr3689     O3704   2.431       .  S
Zr3689     O3695   2.399       .  S
Zr3689     O3696   2.406       .  S
Zr3689     O3697   2.383       .  S
Zr3689     O3698   2.385       .  S
Zr3690     O3709   2.435       .  S
Zr3690     O3702   2.434       .  S
Zr3690     O3703   2.452       .  S
Zr3690     O3696   2.420       .  S
Zr3690     O3697   2.410       .  S
Zr3691     O3693   2.434       .  S
Zr3691     O3715   2.437       .  S
Zr3691     O3717   2.471       .  S
Zr3691     O3695   2.422       .  S
Zr3691     O3698   2.424       .  S
Zr3692     O3718   2.437       .  S
Zr3692     O3719   2.437       .  S
Zr3692     O3694   2.442       .  S
Zr3692     O3695   2.388       .  S
Zr3692     O3696   2.370       .  S
O3693      H3730   0.990       .  S
O3694      H3725   0.990       .  S
O3694      H3739   0.990       .  S
O3696      H3722   0.965       .  S
O3697     Zr3707   2.364       .  S
O3698     Zr3707   2.368       .  S
O3698      H3723   0.966       .  S
C3699      C3880   1.483       .  S
C3700      C3863   1.512       .  S
C3701      C3786   1.492       .  S
O3702      H3738   0.990       .  S
O3703      C3705   1.289       .  A
O3704      C3705   1.285       .  A
C3705      C3833   1.471       .  S
O3706     Zr3707   2.435       .  S
O3706      H3735   0.990       .  S
Zr3707     O3710   2.438       .  S
Zr3707     O3711   2.439       .  S
Zr3707     O3712   2.479       .  S
O3708      C3713   1.283       .  A
O3709      H3726   0.990       .  S
O3709      H3741   0.990       .  S
O3710      H3727   0.990       .  S
O3711      H3731   0.990       .  S
O3711      H3740   0.989       .  S
O3712      C3713   1.292       .  A
C3713      C3813   1.508       .  S
O3714      H3733   0.990       .  S
O3714      H3737   0.990       .  S
O3715      H3729   0.990       .  S
O3715      H3736   0.990       .  S
O3716      C3720   1.290       .  A
O3717      C3720   1.290       .  A
O3718      H3728   0.990       .  S
O3719      H3732   0.990       .  S
C3720      C3767   1.491       .  S
Zr3743     O3745   2.431       .  S
Zr3743     O3749   2.402       .  S
Zr3743     O3751   2.378       .  S
Zr3743     O3752   2.411       .  S
Zr3743     O3753   2.408       .  S
Zr3743     O3754   2.410       .  S
O3744      H3800   0.990       .  S
O3744      H3808   0.990       .  S
O3745      C3765   1.276       .  A
O3746      C3767   1.274       .  A
O3747     Zr3757   2.472       .  S
O3747      C3766   1.283       .  A
O3748      C3767   1.295       .  A
O3749      C3766   1.272       .  A
O3750     Zr3758   2.404       .  S
O3750      C3765   1.267       .  A
O3751     Zr3756   2.363       .  S
O3751     Zr3758   2.381       .  S
O3752     Zr3757   2.406       .  S
O3752     Zr3758   2.380       .  S
O3752      H3787   0.963       .  S
O3753     Zr3756   2.385       .  S
O3753     Zr3773   2.406       .  S
O3753      H3790   0.966       .  S
O3754     Zr3757   2.412       .  S
O3754     Zr3773   2.406       .  S
Zr3755     O3780   2.438       .  S
Zr3755     O3774   2.427       .  S
Zr3755     O3782   2.433       .  S
Zr3755     O3770   2.434       .  S
Zr3755     O3761   2.400       .  S
Zr3755     O3762   2.406       .  S
Zr3755     O3763   2.385       .  S
Zr3755     O3764   2.379       .  S
Zr3756     O3775   2.435       .  S
Zr3756     O3768   2.433       .  S
Zr3756     O3769   2.413       .  S
Zr3756     O3762   2.413       .  S
Zr3756     O3763   2.407       .  S
Zr3757     O3759   2.434       .  S
Zr3757     O3781   2.435       .  S
Zr3757     O3783   2.466       .  S
Zr3757     O3761   2.411       .  S
Zr3757     O3764   2.409       .  S
Zr3758     O3784   2.436       .  S
Zr3758     O3785   2.440       .  S
Zr3758     O3760   2.439       .  S
Zr3758     O3761   2.392       .  S
Zr3758     O3762   2.361       .  S
O3759      H3796   0.990       .  S
O3760      H3791   0.989       .  S
O3760      H3805   0.990       .  S
O3762      H3788   0.963       .  S
O3763     Zr3773   2.370       .  S
O3764     Zr3773   2.373       .  S
O3764      H3789   0.966       .  S
C3765      C3823   1.469       .  S
C3766      C3850   1.501       .  S
O3768      H3804   0.991       .  S
O3769      C3771   1.282       .  A
O3770      C3771   1.286       .  A
C3771      C3873   1.458       .  S
O3772     Zr3773   2.435       .  S
O3772      H3801   0.990       .  S
Zr3773     O3776   2.437       .  S
Zr3773     O3777   2.437       .  S
Zr3773     O3778   2.450       .  S
O3774      C3779   1.282       .  A
O3775      H3792   0.990       .  S
O3775      H3807   0.990       .  S
O3776      H3793   0.990       .  S
O3777      H3797   0.990       .  S
O3777      H3806   0.990       .  S
O3778      C3779   1.287       .  A
C3779      C3900   1.493       .  S
O3780      H3799   0.989       .  S
O3780      H3803   0.990       .  S
O3781      H3795   0.990       .  S
O3781      H3802   0.990       .  S
O3782      C3786   1.289       .  A
O3783      C3786   1.288       .  A
O3784      H3794   0.990       .  S
O3785      H3798   0.990       .  S
C3809      C3810   1.400       .  A
C3809      C3814   1.411       .  A
C3809      H3816   1.083       .  S
C3810      C3811   1.418       .  A
C3811      C3812   1.406       .  A
C3811     Br3818   1.920       .  S
C3812      C3813   1.404       .  A
C3812      H3817   1.083       .  S
C3813      C3814   1.420       .  A
C3814     Br3815   1.909       .  S
C3819      C3824   1.383       .  A
C3819      H3826   1.081       .  S
C3820      C3821   1.409       .  A
C3821      C3822   1.404       .  A
C3821     Br3828   1.918       .  S
C3822      C3823   1.411       .  A
C3822      H3827   1.083       .  S
C3824     Br3825   1.907       .  S
C3829      C3830   1.411       .  A
C3829      C3834   1.401       .  A
C3829      H3836   1.083       .  S
C3830      C3831   1.416       .  A
C3831      C3832   1.398       .  A
C3831     Br3838   1.920       .  S
C3832      C3833   1.401       .  A
C3832      H3837   1.084       .  S
C3833      C3834   1.403       .  A
C3834     Br3835   1.917       .  S
C3839      C3840   1.408       .  A
C3839      C3844   1.406       .  A
C3839      H3846   1.084       .  S
C3840      C3841   1.415   1_556  A
C3841      C3842   1.410       .  A
C3841     Br3848   1.918       .  S
C3842      C3843   1.406   1_554  A
C3843      C3844   1.414       .  A
C3844     Br3845   1.921       .  S
C3849      C3850   1.408       .  A
C3849      H3856   1.081       .  S
C3850      C3851   1.418       .  A
C3851      C3852   1.415       .  A
C3851     Br3858   1.919       .  S
C3852      H3857   1.081       .  S
C3853      C3854   1.397       .  A
C3854     Br3855   1.918       .  S
C3859      C3860   1.416       .  A
C3859      C3864   1.413       .  A
C3859      H3866   1.083       .  S
C3860      C3861   1.404       .  A
C3861      C3862   1.400       .  A
C3861     Br3868   1.918       .  S
C3862      C3863   1.420       .  A
C3862      H3867   1.083       .  S
C3863      C3864   1.412       .  A
C3864     Br3865   1.916       .  S
C3869      C3870   1.398       .  A
C3869      C3874   1.391       .  A
C3869      H3876   1.084       .  S
C3870      C3871   1.409       .  A
C3871      C3872   1.390       .  A
C3871     Br3878   1.919       .  S
C3872      C3873   1.399       .  A
C3872      H3877   1.084       .  S
C3873      C3874   1.410       .  A
C3874     Br3875   1.918       .  S
C3879      C3880   1.407       .  A
C3879      C3884   1.401       .  A
C3879      H3886   1.083       .  S
C3880      C3881   1.410       .  A
C3881      C3882   1.394       .  A
C3881     Br3888   1.915       .  S
C3882      C3883   1.407       .  A
C3882      H3887   1.083       .  S
C3883      C3884   1.414       .  A
C3884     Br3885   1.918       .  S
C3889      C3890   1.399       .  A
C3889      C3894   1.401       .  A
C3889      H3896   1.084       .  S
C3890      C3891   1.407       .  A
C3891      C3892   1.398       .  A
C3891     Br3898   1.918       .  S
C3892      C3893   1.404       .  A
C3892      H3897   1.083       .  S
C3893      C3894   1.420       .  A
C3894     Br3895   1.922       .  S
C3899      C3900   1.416       .  A
C3899      C3904   1.410       .  A
C3899      H3906   1.083       .  S
C3900      C3901   1.412       .  A
C3901      C3902   1.392       .  A
C3901     Br3908   1.919       .  S
C3902      C3903   1.403       .  A
C3902      H3907   1.084       .  S
C3903      C3904   1.405       .  A
C3904     Br3905   1.916       .  S
C3909      C3910   1.410       .  A
C3909      C3914   1.394       .  A
C3909      H3916   1.083       .  S
C3910      C3911   1.415       .  A
C3911      C3912   1.391       .  A
C3911     Br3918   1.923       .  S
C3912      C3913   1.403       .  A
C3912      H3917   1.083       .  S
C3913      C3914   1.407       .  A
C3914     Br3915   1.916       .  S
C3919      C3920   1.423       .  A
C3919      C3924   1.417       .  A
C3919      H3926   1.083       .  S
C3920      C3921   1.410       .  A
C3921      C3922   1.403       .  A
C3921     Br3928   1.915       .  S
C3922      C3923   1.416       .  A
C3922      H3927   1.083       .  S
C3923      C3924   1.409       .  A
C3924     Br3925   1.916       .  S
C3929      C3930   1.404       .  A
C3929      C3934   1.393       .  A
C3929      H3936   1.084       .  S
C3930      C3931   1.409       .  A
C3931      C3932   1.388       .  A
C3931     Br3938   1.921       .  S
C3932      C3933   1.400       .  A
C3932      H3937   1.084       .  S
C3933      C3934   1.406       .  A
C3934     Br3935   1.918       .  S
C3939      C3940   1.408   1_655  A
C3939      C3944   1.393       .  A
C3939      H3946   1.075       .  S
C3940      C3941   1.419       .  A
C3941      C3942   1.396       .  A
C3941     Br3948   1.922       .  S
C3942      C3943   1.403       .  A
C3942      H3947   1.083       .  S
C3943      C3944   1.396   1_455  A
C3944     Br3945   1.918       .  S
C3949      C3950   1.401       .  A
C3949      C3954   1.400       .  A
C3949      H3956   1.084       .  S
C3950      C3951   1.401       .  A
C3951      C3952   1.387       .  A
C3951     Br3958   1.918       .  S
C3952      C3953   1.408       .  A
C3952      H3957   1.082       .  S
C3953      C3954   1.417       .  A
C3954     Br3955   1.919       .  S
C3959      C3960   1.405       .  A
C3959      C3964   1.406       .  A
C3959      H3966   1.084       .  S
C3960      C3961   1.414       .  A
C3961      C3962   1.407       .  A
C3961     Br3968   1.919       .  S
C3962      C3963   1.404       .  A
C3962      H3967   1.083       .  S
C3963      C3964   1.411       .  A
C3964     Br3965   1.917       .  S
C3969      C3970   1.423       .  A
C3969      C3974   1.411       .  A
C3969      H3976   1.081       .  S
C3970      C3971   1.407       .  A
C3971      C3972   1.412       .  A
C3971     Br3978   1.915       .  S
C3972      C3973   1.422       .  A
C3972      H3977   1.084       .  S
C3973      C3974   1.405       .  A
C3974     Br3975   1.917       .  S
C3979      C3980   1.391       .  A
C3979      C3984   1.380       .  A
C3979      H3986   1.085       .  S
C3980      C3981   1.405       .  A
C3981      C3982   1.392       .  A
C3981     Br3988   1.917       .  S
C3982      C3983   1.400       .  A
C3982      H3987   1.084       .  S
C3983      C3984   1.404       .  A
C3984     Br3985   1.918       .  S
C3989      C3990   1.406       .  A
C3989      C3994   1.401       .  A
C3989      H3996   1.084       .  S
C3990      C3991   1.408       .  A
C3991      C3992   1.408       .  A
C3991     Br3998   1.919       .  S
C3992      C3993   1.412       .  A
C3992      H3997   1.083       .  S
C3993      C3994   1.412       .  A
C3994     Br3995   1.920       .  S
C3999      C4000   1.399   1_554  A
C3999      C4004   1.399       .  A
C4000      C4001   1.402       .  A
C4001      C4002   1.390       .  A
C4001     Br4008   1.919       .  S
C4002      C4003   1.408       .  A
C4002      H4007   1.083       .  S
C4003      C4004   1.417   1_556  A
C4009      C4010   1.403       .  A
C4009      H4016   1.083       .  S
C4010      C4011   1.402       .  A
C4011     Br4018   1.916       .  S
C4012      C4013   1.406       .  A
C4012      H4017   1.083       .  S
C4013      C4014   1.413       .  A
C4014     Br4015   1.918       .  S
C4019      C4020   1.403       .  A
C4019      C4024   1.391       .  A
C4019      H4026   1.084       .  S
C4020      C4021   1.411       .  A
C4021      C4022   1.400       .  A
C4021     Br4028   1.919       .  S
C4022      C4023   1.406       .  A
C4022      H4027   1.084       .  S
C4023      C4024   1.410       .  A
C4024     Br4025   1.921       .  S
C4029      C4030   1.405       .  A
C4029      C4034   1.409       .  A
C4029      H4036   1.084       .  S
C4030      C4031   1.410       .  A
C4031      C4032   1.409       .  A
C4031     Br4038   1.919       .  S
C4032      C4033   1.415       .  A
C4032      H4037   1.083       .  S
C4033      C4034   1.424       .  A
C4034     Br4035   1.921       .  S
C4039      C4040   1.409       .  A
C4039      C4044   1.412       .  A
C4040      C4041   1.404       .  A
C4041      C4042   1.392       .  A
C4041     Br4048   1.920       .  S
C4042      C4043   1.411       .  A
C4042      H4047   1.082       .  S
C4043      C4044   1.416       .  A
C4044     Br4045   1.918       .  S
C4049      C4050   1.412       .  A
C4049      C4054   1.421   1_655  A
C4049      H4056   1.083       .  S
C4051      C4052   1.421   1_655  A
C4051     Br4058   1.917       .  S
C4052      H4057   1.083       .  S
C4053      C4054   1.418       .  A
C4054     Br4055   1.917       .  S
C4059      C4060   1.404       .  A
C4059      C4064   1.391       .  A
C4059      H4066   1.084       .  S
C4060      C4061   1.404       .  A
C4061      C4062   1.389       .  A
C4061     Br4068   1.920       .  S
C4062      C4063   1.404       .  A
C4062      H4067   1.084       .  S
C4063      C4064   1.406       .  A
C4064     Br4065   1.922       .  S
C4069      C4070   1.399       .  A
C4069      C4074   1.413       .  A
C4069      H4076   1.083       .  S
C4070      C4071   1.424       .  A
C4071      C4072   1.406       .  A
C4071     Br4078   1.921       .  S
C4072      C4073   1.402       .  A
C4072      H4077   1.083       .  S
C4073      C4074   1.431       .  A
C4074     Br4075   1.918       .  S
C4079      C4080   1.409       .  A
C4079      C4084   1.398       .  A
C4079      H4086   1.083       .  S
C4080      C4081   1.420       .  A
C4081      C4082   1.385       .  A
C4081     Br4088   1.923       .  S
C4082      C4083   1.393       .  A
C4082      H4087   1.083       .  S
C4083      C4084   1.405       .  A
C4089      C4090   1.410       .  A
C4089      C4094   1.421       .  A
C4089      H4096   1.083       .  S
C4090      C4091   1.408       .  A
C4091      C4092   1.413       .  A
C4091     Br4098   1.918       .  S
C4092      C4093   1.419       .  A
C4092      H4097   1.083       .  S
C4093      C4094   1.422       .  A
C4094     Br4095   1.916       .  S
C4099      C4100   1.409       .  A
C4099      C4104   1.394       .  A
C4099      H4106   1.083       .  S
C4100      C4101   1.411       .  A
C4101      C4102   1.385       .  A
C4102      C4103   1.399       .  A
C4102      H4107   1.080       .  S
C4103      C4104   1.405       .  A
C4104     Br4105   1.918       .  S
C4109      C4110   1.412       .  A
C4109      C4114   1.395       .  A
C4109      H4116   1.083       .  S
C4110      C4111   1.420       .  A
C4111      C4112   1.393       .  A
C4111     Br4118   1.920       .  S
C4112      C4113   1.394       .  A
C4112      H4117   1.084       .  S
C4113      C4114   1.398       .  A
C4114     Br4115   1.920       .  S
C4119      C4120   1.403       .  A
C4119      C4124   1.403       .  A
C4119      H4126   1.084       .  S
C4120      C4121   1.411   1_556  A
C4121      C4122   1.407       .  A
C4121     Br4128   1.917       .  S
C4122      C4123   1.406       .  A
C4123      C4124   1.416   1_554  A
C4124     Br4125   1.921       .  S
C4129      C4134   1.393       .  A
C4129      H4136   1.083       .  S
C4130      C4131   1.400       .  A
C4131      C4132   1.395   1_556  A
C4131     Br4138   1.922       .  S
C4132      H4137   1.080   1_554  S
C4133      C4134   1.401       .  A
C4134     Br4135   1.919       .  S
C4139      C4140   1.409   1_565  A
C4139      C4144   1.414       .  A
C4139      H4146   1.083       .  S
C4140      C4141   1.415       .  A
C4141      C4142   1.410       .  A
C4141     Br4148   1.919       .  S
C4142      C4143   1.407   1_655  A
C4142      H4147   1.084       .  S
C4143      C4144   1.414   1_445  A
C4144     Br4145   1.916   1_655  S
C4149      C4150   1.405       .  A
C4149      C4154   1.391       .  A
C4149      H4156   1.084       .  S
C4150      C4151   1.398       .  A
C4151      C4152   1.383       .  A
C4151     Br4158   1.919       .  S
C4152      C4153   1.405       .  A
C4152      H4157   1.079       .  S
C4153      C4154   1.405       .  A
C4154     Br4155   1.921       .  S
C4159      C4160   1.415       .  A
C4159      C4164   1.417       .  A
C4159      H4166   1.083       .  S
C4160      C4161   1.410       .  A
C4161      C4162   1.405       .  A
C4161     Br4168   1.918       .  S
C4162      C4163   1.415       .  A
C4162      H4167   1.082       .  S
C4163      C4164   1.418       .  A
C4164     Br4165   1.919       .  S
C4169      C4170   1.392       .  A
C4169      C4174   1.389       .  A
C4169      H4176   1.084       .  S
C4170      C4171   1.408       .  A
C4171      C4172   1.388       .  A
C4171     Br4178   1.920       .  S
C4172      C4173   1.398       .  A
C4172      H4177   1.084       .  S
C4173      C4174   1.413       .  A
C4174     Br4175   1.916       .  S
C4179      C4180   1.420       .  A
C4179      C4184   1.432   1_565  A
C4179      H4186   1.083       .  S
C4180      C4181   1.422   1_565  A
C4181      C4182   1.404       .  A
C4181     Br4188   1.926       .  S
C4182      C4183   1.411       .  A
C4182      H4187   1.083       .  S
C4183      C4184   1.421       .  A
C4184     Br4185   1.915       .  S
C4189      C4190   1.412       .  A
C4189      C4194   1.395       .  A
C4189      H4196   1.084       .  S
C4190      C4191   1.411       .  A
C4191      C4192   1.403       .  A
C4191     Br4198   1.909       .  S
C4192      C4193   1.409       .  A
C4192      H4197   1.081       .  S
C4193      C4194   1.397       .  A
C4194     Br4195   1.911       .  S
C4199      C4200   1.412       .  A
C4199      C4204   1.402       .  A
C4199      H4206   1.083       .  S
C4200      C4201   1.409       .  A
C4201      C4202   1.395       .  A
C4201     Br4208   1.920       .  S
C4202      C4203   1.411       .  A
C4202      H4207   1.083       .  S
C4203      C4204   1.412       .  A
C4204     Br4205   1.920       .  S
C4209      C4210   1.403       .  A
C4209      C4214   1.405       .  A
C4209      H4216   1.083       .  S
C4210      C4211   1.415       .  A
C4211      C4212   1.403       .  A
C4211     Br4218   1.920   1_565  S
C4212      C4213   1.403       .  A
C4212      H4217   1.084       .  S
C4213      C4214   1.412       .  A
C4214     Br4215   1.918       .  S
C4219      C4220   1.409       .  A
C4219      C4224   1.417       .  A
C4219      H4226   1.083       .  S
C4220      C4221   1.417       .  A
C4221      C4222   1.393       .  A
C4221     Br4228   1.920       .  S
C4222      C4223   1.398       .  A
C4222      H4227   1.084       .  S
C4223      C4224   1.418       .  A
C4224     Br4225   1.918       .  S
C4229      C4230   1.413       .  A
C4229      C4234   1.413       .  A
C4229      H4236   1.084       .  S
C4230      C4231   1.414   1_455  A
C4231      C4232   1.417       .  A
C4231     Br4238   1.916       .  S
C4232      C4233   1.412       .  A
C4232      H4237   1.083       .  S
C4233      C4234   1.411   1_655  A
C4234     Br4235   1.918       .  S
C4239      C4240   1.412       .  A
C4239      C4244   1.386       .  A
C4239      H4246   1.083   1_655  S
C4240      C4241   1.405       .  A
C4241      C4242   1.390       .  A
C4241     Br4248   1.922       .  S
C4242      C4243   1.408       .  A
C4242      H4247   1.083       .  S
C4243      C4244   1.398       .  A
C4244     Br4245   1.919   1_655  S
C4249      C4250   1.405       .  A
C4249      C4254   1.388       .  A
C4249      H4256   1.078       .  S
C4250      C4251   1.403       .  A
C4251      C4252   1.398       .  A
C4251     Br4258   1.918       .  S
C4252      C4253   1.409       .  A
C4252      H4257   1.082       .  S
C4253      C4254   1.398       .  A
C4254     Br4255   1.917       .  S
C4259      C4260   1.400       .  A
C4259      C4264   1.397       .  A
C4259      H4266   1.084       .  S
C4260      C4261   1.414       .  A
C4261      C4262   1.416       .  A
C4261     Br4268   1.915       .  S
C4262      C4263   1.408       .  A
C4262      H4267   1.083       .  S
C4263      C4264   1.413       .  A
C4264     Br4265   1.919       .  S
C4269      C4270   1.404       .  A
C4269      C4274   1.389       .  A
C4269      H4276   1.083       .  S
C4270      C4271   1.423       .  A
C4271      C4272   1.393       .  A
C4271     Br4278   1.919       .  S
C4272      C4273   1.394       .  A
C4272      H4277   1.084       .  S
C4273      C4274   1.407       .  A
C4274     Br4275   1.919       .  S
C4279      C4280   1.413       .  A
C4279      C4284   1.424       .  A
C4279      H4286   1.083       .  S
C4280      C4281   1.420   1_655  A
C4281      C4282   1.425   1_455  A
C4281     Br4288   1.915       .  S
C4282      C4283   1.412   1_565  A
C4282      H4287   1.083   1_665  S
C4283      C4284   1.420   1_545  A
C4284     Br4285   1.918   1_565  S
C4289      C4290   1.403       .  A
C4289      C4294   1.389       .  A
C4289      H4296   1.083       .  S
C4290      C4291   1.415       .  A
C4291      C4292   1.385   1_565  A
C4291     Br4298   1.924       .  S
C4292      C4293   1.399       .  A
C4292      H4297   1.082       .  S
C4293      C4294   1.408   1_545  A
C4294     Br4295   1.919       .  S
C4299      C4300   1.405       .  A
C4299      C4304   1.398       .  A
C4299      H4306   1.081       .  S
C4300      C4301   1.415       .  A
C4301      C4302   1.396       .  A
C4301     Br4308   1.924       .  S
C4302      C4303   1.407       .  A
C4302      H4307   1.084       .  S
C4303      C4304   1.413       .  A
C4304     Br4305   1.921       .  S
C4309      C4310   1.405       .  A
C4309      C4314   1.391       .  A
C4309      H4316   1.084       .  S
C4310      C4311   1.403       .  A
C4311      C4312   1.394       .  A
C4311     Br4318   1.921       .  S
C4312      C4313   1.414       .  A
C4312      H4317   1.083       .  S
C4313      C4314   1.411       .  A
C4314     Br4315   1.924       .  S
C4319      C4320   1.407       .  A
C4319      C4324   1.410       .  A
C4319      H4326   1.083       .  S
C4320      C4321   1.415   1_655  A
C4321      C4322   1.406       .  A
C4321     Br4328   1.916       .  S
C4322      C4323   1.403   1_455  A
C4322      H4327   1.084       .  S
C4323      C4324   1.412       .  A
C4324     Br4325   1.917       .  S
C4329      C4330   1.410       .  A
C4329      C4334   1.417       .  A
C4329      H4336   1.083       .  S
C4330      C4331   1.413       .  A
C4331      C4332   1.398       .  A
C4331     Br4338   1.918       .  S
C4332      C4333   1.402       .  A
C4332      H4337   1.084       .  S
C4333      C4334   1.412       .  A
C4334     Br4335   1.916       .  S
C4339      C4340   1.408       .  A
C4339      C4344   1.393       .  A
C4339      H4346   1.083       .  S
C4340      C4341   1.411       .  A
C4341      C4342   1.393       .  A
C4341     Br4348   1.916       .  S
C4342      C4343   1.400       .  A
C4342      H4347   1.084       .  S
C4343      C4344   1.404       .  A
C4344     Br4345   1.919       .  S
C4349      C4350   1.407       .  A
C4349      C4354   1.384       .  A
C4349      H4356   1.083       .  S
C4350      C4351   1.412       .  A
C4351      C4352   1.394       .  A
C4351     Br4358   1.916   1_565  S
C4352      C4353   1.398       .  A
C4352      H4357   1.084       .  S
C4353      C4354   1.399       .  A
C4354     Br4355   1.921       .  S
C4359      C4360   1.419       .  A
C4359      C4364   1.425       .  A
C4360      C4361   1.428       .  A
C4361      C4362   1.409   1_565  A
C4361     Br4368   1.916       .  S
C4362      C4363   1.404       .  A
C4362      H4367   1.084       .  S
C4363      C4364   1.415   1_545  A
C4369      C4370   1.405       .  A
C4369      C4374   1.400       .  A
C4369      H4376   1.084       .  S
C4370      C4371   1.403       .  A
C4371      C4372   1.392       .  A
C4371     Br4378   1.918       .  S
C4372      C4373   1.405       .  A
C4372      H4377   1.084       .  S
C4373      C4374   1.407       .  A
C4374     Br4375   1.919       .  S
C4379      C4384   1.392       .  A
C4379      H4386   1.083       .  S
C4380      C4381   1.413       .  A
C4381      C4382   1.399       .  A
C4381     Br4388   1.921       .  S
C4382      C4383   1.404       .  A
C4382      H4387   1.084       .  S
C4384     Br4385   1.916       .  S
C4389      C4390   1.420       .  A
C4389      C4394   1.428       .  A
C4389      H4396   1.083       .  S
C4390      C4391   1.409       .  A
C4391      C4392   1.415       .  A
C4391     Br4398   1.915       .  S
C4392      C4393   1.413       .  A
C4392      H4397   1.080       .  S
C4393      C4394   1.416       .  A
C4394     Br4395   1.916       .  S
C4399      C4400   1.401       .  A
C4399      H4406   1.079       .  S
C4400      C4401   1.404       .  A
C4401      C4402   1.387       .  A
C4401     Br4408   1.921       .  S
C4402      H4407   1.082       .  S
C4403      C4404   1.415       .  A
C4404     Br4405   1.915       .  S
C4409      C4410   1.387       .  A
C4409      C4414   1.391       .  A
C4410      C4411   1.409       .  A
C4411      C4412   1.401       .  A
C4411     Br4418   1.913       .  S
C4412      C4413   1.406       .  A
C4412      H4417   1.083       .  S
C4413      C4414   1.434       .  A
C4414     Br4415   1.922       .  S
C4419      C4420   1.406       .  A
C4419      C4424   1.399       .  A
C4419      H4426   1.084       .  S
C4420      C4421   1.410       .  A
C4421      C4422   1.396       .  A
C4421     Br4428   1.923       .  S
C4422      C4423   1.408       .  A
C4422      H4427   1.084       .  S
C4423      C4424   1.412       .  A
C4424     Br4425   1.919       .  S
C4429      C4430   1.411       .  A
C4429      C4434   1.405       .  A
C4429      H4436   1.083       .  S
C4430      C4431   1.421       .  A
C4431      C4432   1.414       .  A
C4431     Br4438   1.918       .  S
C4432      C4433   1.407       .  A
C4432      H4437   1.083       .  S
C4433      C4434   1.413       .  A
C4434     Br4435   1.922       .  S
C4439      C4440   1.406       .  A
C4439      C4444   1.402       .  A
C4439      H4446   1.083       .  S
C4440      C4441   1.403       .  A
C4441      C4442   1.399       .  A
C4441     Br4448   1.914       .  S
C4442      C4443   1.411       .  A
C4442      H4447   1.084       .  S
C4443      C4444   1.412       .  A
