geometry optimzed in LAMMPS
_audit_creation_date              2020-11-30 
_audit_creation_method            'lammps2cif' 
_symmetry_space_group_name_H-M    'P1' 
_symmetry_Int_Tables_number       1 
_symmetry_cell_setting            triclinic 
loop_ 
_symmetry_equiv_pos_as_xyz 
  x,y,z 
_cell_length_a                    37.49721619 
_cell_length_b                    37.503467246721435 
_cell_length_c                    29.477315977131074 
_cell_angle_alpha                 89.9982230200009 
_cell_angle_beta                  90.01433891366099 
_cell_angle_gamma                 90.03467182015228 
loop_ 
_atom_site_label 
_atom_site_type_symbol 
_atom_site_fract_x 
_atom_site_fract_y 
_atom_site_fract_z 
_atom_site_charge 
In1        In  0.76310941  0.09751470  0.84917767     1.36900
C2          C  0.76869315  0.02752346  0.84797485     0.80300
O3          O  0.77378391  0.09241188  0.92323751    -0.58100
O4          O  0.72463575  0.11626261  0.90398022    -0.49000
C5          C  0.81352977  0.14614153  0.84391661     0.73000
O6          O  0.82024475  0.11327009  0.84188926    -0.43900
C7          C  0.72981159  0.10487864  0.77012074     0.77700
O8          O  0.79556879  0.04754622  0.84454065    -0.55800
O9          O  0.71434906  0.11072381  0.80746330    -0.45800
O10         O  0.73915021  0.04316480  0.85206520    -0.52200
C11         C  0.74499355  0.10643685  0.93581478     0.87900
O12         O  0.78107011  0.15425393  0.84791672    -0.54100
O13         O  0.76225873  0.09670686  0.77317540    -0.57400
C14         C  0.67570374  0.08369230  0.65398313     0.89200
C15         C  0.67917242  0.04296003  0.65247129    -0.51000
C16         C  0.65989849  0.02749027  0.61867799     0.12200
C17         C  0.63889606  0.05393376  0.58941214     0.23100
C18         C  0.68655360  0.09642387  0.60622213    -0.51700
C19         C  0.66704351  0.08059125  0.57246672     0.12300
C20         C  0.63551899  0.09077949  0.65734074    -0.51300
C21         C  0.61637057  0.07515457  0.62344173     0.12800
H22         H  0.69502615  0.02765611  0.67643639     0.17300
H23         H  0.62307790  0.04108704  0.56198970     0.03100
H24         H  0.70769742  0.11555821  0.59975410     0.17600
H25         H  0.62326622  0.10608233  0.68449942     0.17400
In26       In  0.76293097  0.09668843  0.15878560     1.36900
C27         C  0.76819341  0.02659448  0.16060470     0.80300
O28         O  0.76158887  0.09604023  0.23477192    -0.58100
O29         O  0.71412003  0.11090638  0.20015859    -0.49000
C30         C  0.81397732  0.14462617  0.16468912     0.73000
O31         O  0.82034397  0.11165790  0.16561528    -0.43900
C32         C  0.74520869  0.10613138  0.07195820     0.77700
O33         O  0.79492271  0.04655993  0.16577511    -0.55800
O34         O  0.72454415  0.11526232  0.10377279    -0.45800
O35         O  0.73891763  0.04232614  0.15446179    -0.52200
C36         C  0.72931863  0.10485120  0.23763654     0.87900
O37         O  0.78158854  0.15315849  0.16121767    -0.54100
O38         O  0.77422393  0.09256485  0.08458966    -0.57400
C39         C  0.67566475  0.08386276  0.35406098     0.89200
C40         C  0.63545919  0.09088104  0.35109664    -0.51000
C41         C  0.61653511  0.07502845  0.38500421     0.12200
C42         C  0.63925446  0.05363472  0.41864491     0.23100
C43         C  0.68670442  0.09636662  0.40187623    -0.51700
C44         C  0.66737429  0.08030743  0.43563343     0.12300
C45         C  0.67923861  0.04312672  0.35519004    -0.51300
C46         C  0.66017503  0.02739781  0.38896964     0.12800
H47         H  0.62303195  0.10638243  0.32423270     0.17300
H48         H  0.62359022  0.04061218  0.44606107     0.03100
H49         H  0.70772203  0.11564021  0.40835872     0.17600
H50         H  0.69503637  0.02800221  0.33097940     0.17400
In51       In  0.76217664  0.84950522  0.84962769     1.36900
C52         C  0.76824900  0.91953198  0.84802050     0.80300
O53         O  0.76096078  0.84941323  0.77360977    -0.58100
O54         O  0.71298005  0.83653222  0.80841413    -0.49000
C55         C  0.81252238  0.80096244  0.84353626     0.73000
O56         O  0.81930473  0.83385283  0.84219585    -0.43900
C57         C  0.74445756  0.84015421  0.93640322     0.77700
O58         O  0.79488590  0.89933088  0.84389613    -0.55800
O59         O  0.72360565  0.83130960  0.90463196    -0.45800
O60         O  0.73868298  0.90407104  0.85294070    -0.52200
C61         C  0.72837453  0.84173366  0.77086632     0.87900
O62         O  0.78005173  0.79280864  0.84745818    -0.54100
O63         O  0.77361906  0.85338549  0.92374082    -0.57400
C64         C  0.67454496  0.86291471  0.65444563     0.89200
C65         C  0.63431914  0.85598993  0.65746816    -0.51000
C66         C  0.61542708  0.87165363  0.62339073     0.12200
C67         C  0.63821568  0.89279619  0.58952803     0.23100
C68         C  0.68555848  0.85012109  0.60675404    -0.51700
C69         C  0.66630180  0.86601998  0.57281016     0.12300
C70         C  0.67823530  0.90362924  0.65291354    -0.51300
C71         C  0.65922793  0.91916565  0.61894206     0.12800
H72         H  0.62185543  0.84069569  0.68449824     0.17300
H73         H  0.62259946  0.90568969  0.56197400     0.03100
H74         H  0.70663019  0.83089075  0.60047167     0.17600
H75         H  0.69409519  0.91887594  0.67695546     0.17400
In76       In  0.76293904  0.84850544  0.15915056     1.36900
C77         C  0.76834569  0.91853288  0.16067248     0.80300
O78         O  0.77349360  0.85403774  0.08505354    -0.58100
O79         O  0.72461637  0.82957101  0.10433439    -0.49000
C80         C  0.81313050  0.79968643  0.16456603     0.73000
O81         O  0.82003529  0.83253553  0.16652239    -0.43900
C82         C  0.72957590  0.84099137  0.23818554     0.77700
O83         O  0.79524162  0.89859614  0.16450206    -0.55800
O84         O  0.71412565  0.83520574  0.20080122    -0.45800
O85         O  0.73889115  0.90278405  0.15598822    -0.52200
C86         C  0.74478439  0.83976142  0.07249850     0.87900
O87         O  0.78064739  0.79172662  0.16033778    -0.54100
O88         O  0.76201942  0.84921190  0.23516172    -0.57400
C89         C  0.67572108  0.86241190  0.35437844     0.89200
C90         C  0.67938698  0.90314684  0.35542883    -0.51000
C91         C  0.66026159  0.91893612  0.38908870     0.12200
C92         C  0.63919946  0.89276943  0.41872026     0.23100
C93         C  0.68658989  0.84995680  0.40227948    -0.51700
C94         C  0.66719835  0.86608370  0.43591338     0.12300
C95         C  0.63548398  0.85544886  0.35123713    -0.51300
C96         C  0.61649525  0.87139616  0.38502114     0.12800
H97         H  0.69526984  0.91822395  0.33125065     0.17300
H98         H  0.62349297  0.90586137  0.44603530     0.03100
H99         H  0.70754218  0.83066731  0.40890499     0.17600
H100        H  0.62308843  0.83997923  0.32431437     0.17400
C101        C  0.44848880  0.08398837  0.65488461     0.89200
C102        C  0.48868417  0.09121180  0.65771761    -0.51000
C103        C  0.50764311  0.07519687  0.62396927     0.12200
C104        C  0.48493683  0.05352120  0.59056821     0.23100
C105        C  0.43734503  0.09611614  0.60695772    -0.51700
C106        C  0.45670155  0.07994589  0.57333043     0.12300
C107        C  0.44505831  0.04323290  0.65421316    -0.51300
C108        C  0.46412852  0.02739263  0.62054481     0.12800
H109        H  0.50109016  0.10686211  0.68446804     0.17300
H110        H  0.50060732  0.04038259  0.56325975     0.03100
H111        H  0.41626345  0.11525423  0.60031409     0.17600
H112        H  0.42927616  0.02819634  0.67853623     0.17400
In113      In  0.36228613  0.09767860  0.85050090     1.36900
C114        C  0.35706658  0.02758549  0.84888029     0.80300
O115        O  0.36263660  0.09782937  0.77452839    -0.58100
O116        O  0.41096370  0.11083082  0.80858862    -0.49000
C117        C  0.31191000  0.14629083  0.84496983     0.73000
O118        O  0.30512664  0.11340286  0.84317815    -0.43900
C119        C  0.38077645  0.10689432  0.93691034     0.77700
O120        O  0.33006557  0.04746565  0.84609766    -0.55800
O121        O  0.40111436  0.11625882  0.90486198    -0.45800
O122        O  0.38655926  0.04340691  0.85254803    -0.52200
C123        C  0.39517705  0.10560814  0.77129615     0.87900
O124        O  0.34437740  0.15438785  0.84911481    -0.54100
O125        O  0.35169082  0.09320767  0.92470446    -0.57400
C126        C  0.44873823  0.08416931  0.35475330     0.87600
C127        C  0.44537130  0.04341055  0.35559597    -0.51000
C128        C  0.46451196  0.02769137  0.38930466     0.12200
C129        C  0.48528070  0.05392257  0.41916410     0.23100
C130        C  0.43759922  0.09639638  0.40264042    -0.51700
C131        C  0.45699580  0.08031211  0.43632161     0.12300
C132        C  0.48890219  0.09144371  0.35185597    -0.51300
C133        C  0.50790119  0.07554694  0.38564682     0.12800
H134        H  0.42965336  0.02827889  0.33128971     0.17300
H135        H  0.50100637  0.04086466  0.44649826     0.03100
H136        H  0.41642204  0.11544215  0.40922462     0.17600
H137        H  0.50127212  0.10698666  0.32498281     0.17400
In138      In  0.36247909  0.09786178  0.15905022     1.36900
C139        C  0.35681188  0.02782863  0.16086383     0.80300
O140        O  0.35195700  0.09343517  0.08491333    -0.58100
O141        O  0.40152332  0.11619532  0.10472124    -0.49000
C142        C  0.31185269  0.14630975  0.16436328     0.73000
O143        O  0.30521182  0.11338923  0.16562233    -0.43900
C144        C  0.39558027  0.10561131  0.23813985     0.77700
O145        O  0.32998214  0.04786441  0.16427704    -0.55800
O146        O  0.41132331  0.11080963  0.20082516    -0.45800
O147        O  0.38633563  0.04345996  0.15650064    -0.52200
C148        C  0.38109986  0.10694706  0.07268742     0.87900
O149        O  0.34432963  0.15456670  0.16082337    -0.54100
O150        O  0.36301465  0.09795477  0.23497237    -0.57400
C151        C  0.44761918  0.86236192  0.65417102     0.89200
C152        C  0.44422118  0.90311593  0.65346381    -0.51000
C153        C  0.46332916  0.91895075  0.61981339     0.12200
C154        C  0.48407174  0.89281683  0.58982559     0.23100
C155        C  0.43644919  0.85019161  0.60626061    -0.51700
C156        C  0.45582248  0.86636870  0.57262392     0.12300
C157        C  0.48780715  0.85516356  0.65698681    -0.51300
C158        C  0.50675511  0.87116840  0.62321362     0.12800
H159        H  0.42858482  0.91816984  0.67790250     0.17300
H160        H  0.49976383  0.90595492  0.56251892     0.03100
H161        H  0.41536508  0.83102435  0.59963824     0.17600
H162        H  0.50022346  0.83957033  0.68377372     0.17400
In163      In  0.36170031  0.84935255  0.85003086     1.36900
C164        C  0.35683124  0.91949721  0.84862530     0.80300
O165        O  0.35097053  0.85374761  0.92406055    -0.58100
O166        O  0.40058210  0.83098462  0.90451308    -0.49000
C167        C  0.31061210  0.80122230  0.84499632     0.73000
O168        O  0.30428530  0.83418545  0.84317574    -0.43900
C169        C  0.39459523  0.84116418  0.77086558     0.77700
O170        O  0.32980183  0.89971233  0.84505072    -0.55800
O171        O  0.41026864  0.83559396  0.80814947    -0.45800
O172        O  0.38618837  0.90356156  0.85291075    -0.52200
C173        C  0.38006397  0.84023827  0.93643330     0.87900
O174        O  0.34300816  0.79276615  0.84884009    -0.54100
O175        O  0.36219789  0.84944791  0.77410480    -0.57400
C176        C  0.44861306  0.86301332  0.35413275     0.89200
C177        C  0.48878455  0.85576185  0.35128027    -0.51000
C178        C  0.50776429  0.87149021  0.38525056     0.12200
C179        C  0.48508289  0.89293689  0.41889275     0.23100
C180        C  0.43738062  0.85053924  0.40186141    -0.51700
C181        C  0.45671574  0.86644275  0.43573077     0.12300
C182        C  0.44528637  0.90375737  0.35529760    -0.51300
C183        C  0.46439129  0.91931811  0.38916554     0.12800
H184        H  0.50117139  0.84034132  0.32432007     0.17300
H185        H  0.50076043  0.90585598  0.44638701     0.03100
H186        H  0.41615323  0.83147698  0.40821788     0.17600
H187        H  0.42964046  0.91900544  0.33105131     0.17400
In188      In  0.36154204  0.84980133  0.15875438     1.36900
C189        C  0.35651659  0.91983323  0.16044030     0.80300
O190        O  0.36251422  0.85024527  0.23469459    -0.58100
O191        O  0.41042475  0.83650354  0.20024457    -0.49000
C192        C  0.31076916  0.80152945  0.16447882     0.73000
O193        O  0.30425681  0.83446151  0.16604096    -0.43900
C194        C  0.37964904  0.84046282  0.07226633     0.77700
O195        O  0.32954324  0.89998426  0.16414863    -0.55800
O196        O  0.39983383  0.83060428  0.10422807    -0.45800
O197        O  0.38589813  0.90400975  0.15568296    -0.52200
C198        C  0.39497057  0.84211800  0.23765017     0.87900
O199        O  0.34318137  0.79320100  0.16056924    -0.54100
O200        O  0.35088399  0.85471462  0.08458701    -0.57400
In201      In  0.18490851  0.67462137  0.85076285     1.36900
C202        C  0.11483149  0.67990080  0.84899900     0.80300
O203        O  0.18423441  0.67348190  0.77473823    -0.58100
O204        O  0.19926741  0.62599277  0.80919649    -0.49000
C205        C  0.23354366  0.72518745  0.84539655     0.73000
O206        O  0.20064379  0.73186697  0.84357339    -0.43900
C207        C  0.19374487  0.65657742  0.93744087     0.77700
O208        O  0.13477275  0.70680542  0.84527858    -0.55800
O209        O  0.20271759  0.63585330  0.90562108    -0.45800
O210        O  0.13058020  0.65047005  0.85360403    -0.52200
C211        C  0.19315116  0.64123514  0.77176404     0.87900
O212        O  0.24164519  0.69273342  0.84945323    -0.54100
O213        O  0.18051528  0.68576012  0.92488867    -0.57400
C214        C  0.17265520  0.58737707  0.65519765     0.89200
C215        C  0.18007535  0.54723378  0.65800999    -0.51000
C216        C  0.16436008  0.52821571  0.62405548     0.12200
C217        C  0.14272933  0.55079510  0.59050473     0.23100
C218        C  0.18501649  0.59861788  0.60738303    -0.51700
C219        C  0.16913477  0.57917863  0.57356312     0.12300
C220        C  0.13187830  0.59053864  0.65410918    -0.51300
C221        C  0.11630673  0.57141401  0.62026186     0.12800
H222        H  0.19566719  0.53490360  0.68486211     0.17300
H223        H  0.12982906  0.53506071  0.56304917     0.03100
H224        H  0.20412119  0.61979532  0.60095353     0.17600
H225        H  0.11661897  0.60621165  0.67831005     0.17400
In226      In  0.18592867  0.67426229  0.16010198     1.36900
C227        C  0.11582568  0.67905025  0.16168692     0.80300
O228        O  0.18068091  0.68528365  0.08618220    -0.58100
O229        O  0.20450241  0.63601435  0.10513596    -0.49000
C230        C  0.23426174  0.72505723  0.16507501     0.73000
O231        O  0.20134762  0.73152954  0.16755521    -0.43900
C232        C  0.19426693  0.64069437  0.23877523     0.77700
O233        O  0.13557272  0.70604350  0.16606139    -0.55800
O234        O  0.19965575  0.62533481  0.20125484    -0.45800
O235        O  0.13179082  0.64978854  0.15661177    -0.52200
C236        C  0.19456311  0.65645488  0.07345963     0.87900
O237        O  0.24254913  0.69267730  0.16066360    -0.54100
O238        O  0.18599490  0.67311954  0.23603114    -0.57400
C239        C  0.17378528  0.58687741  0.35505028     0.89200
C240        C  0.13304012  0.59030978  0.35601908    -0.51000
C241        C  0.11732862  0.57114386  0.38970015     0.12200
C242        C  0.14355946  0.55029929  0.41945110     0.23100
C243        C  0.18613868  0.59793340  0.40292238    -0.51700
C244        C  0.17005338  0.57853743  0.43660439     0.12300
C245        C  0.18094358  0.54670071  0.35202264    -0.51300
C246        C  0.16506812  0.52767368  0.38582724     0.12800
H247        H  0.11789726  0.60602679  0.33174149     0.17300
H248        H  0.13050320  0.53456784  0.44678603     0.03100
H249        H  0.20520580  0.61911690  0.40950380     0.17600
H250        H  0.19644734  0.53435693  0.32511256     0.17400
In251      In  0.93679183  0.67356033  0.84883311     1.36900
C252        C  0.00680551  0.67939646  0.84835191     0.80300
O253        O  0.94076095  0.68407744  0.92307311    -0.58100
O254        O  0.91817105  0.63450157  0.90312555    -0.49000
C255        C  0.88856804  0.72425026  0.84307449     0.73000
O256        O  0.92149791  0.73075734  0.84125879    -0.43900
C257        C  0.92937315  0.64095209  0.76923689     0.77700
O258        O  0.98671737  0.70621719  0.84540871    -0.55800
O259        O  0.92348543  0.62513731  0.80634520    -0.45800
O260        O  0.99122703  0.64974359  0.85161686    -0.52200
C261        C  0.92726438  0.65491891  0.93524705     0.87900
O262        O  0.88018945  0.69186093  0.84724575    -0.54100
O263        O  0.93770265  0.67331746  0.77283612    -0.57400
C264        C  0.95106419  0.58775520  0.65280791     0.89200
C265        C  0.99182389  0.59134315  0.65211498    -0.51000
C266        C  0.00778733  0.57191645  0.61886417     0.12200
C267        C  0.98173754  0.55070277  0.58921275     0.23100
C268        C  0.93890490  0.59830392  0.60468229    -0.51700
C269        C  0.95519955  0.57864194  0.57143455     0.12300
C270        C  0.94400965  0.54758423  0.65635529    -0.51300
C271        C  0.96013368  0.52830958  0.62300918     0.12800
H272        H  0.00679157  0.60732277  0.67631041     0.17300
H273        H  0.99496093  0.53475758  0.56222852     0.03100
H274        H  0.91971077  0.61925164  0.59763471     0.17600
H275        H  0.92844989  0.53541230  0.68336510     0.17400
In276      In  0.93772681  0.67258977  0.15780650     1.36900
C277        C  0.00777043  0.67833177  0.16017364     0.80300
O278        O  0.93768682  0.67159530  0.23375788    -0.58100
O279        O  0.92567274  0.62330742  0.19904069    -0.49000
C280        C  0.88922700  0.72298190  0.16405285     0.73000
O281        O  0.92212813  0.72981663  0.16377721    -0.43900
C282        C  0.92788745  0.65460709  0.07119060     0.77700
O283        O  0.98765482  0.70503648  0.16434750    -0.55800
O284        O  0.91823847  0.63432959  0.10316564    -0.45800
O285        O  0.99221321  0.64889411  0.15453369    -0.52200
C286        C  0.93066926  0.63886280  0.23653153     0.87900
O287        O  0.88103758  0.69043250  0.16165383    -0.54100
O288        O  0.94222815  0.68331929  0.08357147    -0.57400
C289        C  0.95270426  0.58526858  0.35285145     0.89200
C290        C  0.94578268  0.54502303  0.35015920    -0.51000
C291        C  0.96147536  0.52633727  0.38440782     0.12200
C292        C  0.98263971  0.54931227  0.41802597     0.23100
C293        C  0.93993346  0.59652391  0.40044861    -0.51700
C294        C  0.95584611  0.57744199  0.43451998     0.12300
C295        C  0.99342207  0.58898652  0.35429096    -0.51300
C296        C  0.00898098  0.57016454  0.38840858     0.12800
H297        H  0.93041730  0.53241194  0.32329508     0.17300
H298        H  0.99555411  0.53385623  0.44571403     0.03100
H299        H  0.92063999  0.61756457  0.40657412     0.17600
H300        H  0.00864248  0.60474600  0.33013169     0.17400
C301        C  0.17417389  0.36061724  0.65522581     0.89200
C302        C  0.13342114  0.35703060  0.65446969    -0.51000
C303        C  0.11754873  0.37592738  0.62065480     0.12200
C304        C  0.14365736  0.39667326  0.59058299     0.23100
C305        C  0.18642535  0.34931938  0.60742407    -0.51700
C306        C  0.17020599  0.36845003  0.57361795     0.12300
C307        C  0.18123793  0.40082864  0.65781094    -0.51300
C308        C  0.16520584  0.41957923  0.62389220     0.12800
H309        H  0.11839614  0.34140318  0.67897009     0.17300
H310        H  0.13049595  0.41219546  0.56314315     0.03100
H311        H  0.20562607  0.32825477  0.60098413     0.17600
H312        H  0.19676527  0.41340446  0.68455229     0.17400
In313      In  0.18732759  0.27363658  0.85034212     1.36900
C314        C  0.11719070  0.26804293  0.84870780     0.80300
O315        O  0.18270759  0.26244470  0.92434866    -0.58100
O316        O  0.20582691  0.31202788  0.90527869    -0.49000
C317        C  0.23577336  0.22303208  0.84479566     0.73000
O318        O  0.20286395  0.21647013  0.84256248    -0.43900
C319        C  0.19541817  0.30732002  0.77167555     0.77700
O320        O  0.13725441  0.24134781  0.84409601    -0.55800
O321        O  0.20071862  0.32271988  0.80919730    -0.45800
O322        O  0.13284378  0.29745525  0.85417018    -0.52200
C323        C  0.19635608  0.29142184  0.93701485     0.87900
O324        O  0.24402256  0.25542296  0.84933561    -0.54100
O325        O  0.18739644  0.27483288  0.77442754    -0.57400
C326        C  0.17359485  0.35976120  0.35512248     0.89200
C327        C  0.18079024  0.39993915  0.35206727    -0.51000
C328        C  0.16503190  0.41897140  0.38593626     0.12200
C329        C  0.14360748  0.39634736  0.41967938     0.23100
C330        C  0.18608580  0.34871889  0.40294790    -0.51700
C331        C  0.17013740  0.36813737  0.43669994     0.12300
C332        C  0.13284511  0.35632443  0.35631289    -0.51300
C333        C  0.11726098  0.37546142  0.39010738     0.12800
H334        H  0.19622480  0.41228466  0.32507401     0.17300
H335        H  0.13066168  0.41207537  0.44708343     0.03100
H336        H  0.20520274  0.32758598  0.40944384     0.17600
H337        H  0.11761788  0.34048983  0.33222487     0.17400
In338      In  0.18651988  0.27291728  0.15952571     1.36900
C339        C  0.11653951  0.26711690  0.16137048     0.80300
O340        O  0.18734747  0.27355798  0.23553344    -0.58100
O341        O  0.19883246  0.32204718  0.20106971    -0.49000
C342        C  0.23513016  0.22249892  0.16473640     0.73000
O343        O  0.20223612  0.21572837  0.16646786    -0.43900
C344        C  0.19573448  0.29120343  0.07299781     0.77700
O345        O  0.13661960  0.24034622  0.16515040    -0.55800
O346        O  0.20555971  0.31140681  0.10497340    -0.45800
O347        O  0.13210447  0.29664486  0.15668320    -0.52200
C348        C  0.19439287  0.30626816  0.23851562     0.87900
O349        O  0.24323779  0.25497974  0.16086593    -0.54100
O350        O  0.18149965  0.26242875  0.08533928    -0.57400
C351        C  0.95276561  0.36060719  0.65664892     0.89200
C352        C  0.94553781  0.40078817  0.65935919    -0.51000
C353        C  0.96124918  0.41965057  0.62527253     0.12200
C354        C  0.98271514  0.39688384  0.59175416     0.23100
C355        C  0.94026720  0.34929149  0.60894645    -0.51700
C356        C  0.95618741  0.36853015  0.57501336     0.12300
C357        C  0.99351681  0.35723489  0.65548723    -0.51300
C358        C  0.00909767  0.37622897  0.62153965     0.12800
H359        H  0.93000102  0.41323788  0.68615650     0.17300
H360        H  0.99563320  0.41247564  0.56418834     0.03100
H361        H  0.92117541  0.32807436  0.60265405     0.17600
H362        H  0.00875047  0.34157713  0.67973622     0.17400
In363      In  0.93897613  0.27259250  0.85132018     1.36900
C364        C  0.00907607  0.26737220  0.84929303     0.80300
O365        O  0.93993564  0.27413355  0.77541110    -0.58100
O366        O  0.92550574  0.32165674  0.81029581    -0.49000
C367        C  0.89022275  0.22235836  0.84506455     0.73000
O368        O  0.92309835  0.21542381  0.84480498    -0.43900
C369        C  0.92973831  0.29012006  0.93812101     0.77700
O370        O  0.98915041  0.24056141  0.84436773    -0.55800
O371        O  0.92043186  0.31080655  0.90640863    -0.45800
O372        O  0.99328726  0.29661055  0.85539751    -0.52200
C373        C  0.93153547  0.30653629  0.77276608     0.87900
O374        O  0.88220463  0.25490668  0.84796904    -0.54100
O375        O  0.94337398  0.26116923  0.92539485    -0.57400
C376        C  0.95247025  0.35825564  0.35662817     0.89200
C377        C  0.99324216  0.35505051  0.35761434    -0.51000
C378        C  0.00888528  0.37451050  0.39110048     0.12200
C379        C  0.98256562  0.39542396  0.42063171     0.23100
C380        C  0.94020399  0.34746991  0.40463666    -0.51700
C381        C  0.95618905  0.36720590  0.43809137     0.12300
C382        C  0.94511434  0.39837461  0.35320339    -0.51300
C383        C  0.96093330  0.41770429  0.38676966     0.12800
H384        H  0.00844464  0.33924893  0.33349805     0.17300
H385        H  0.99555358  0.41141500  0.44777869     0.03100
H386        H  0.92114025  0.32633452  0.41145766     0.17600
H387        H  0.92959209  0.41048034  0.32611289     0.17400
In388      In  0.93857988  0.27188703  0.16076656     1.36900
C389        C  0.00857779  0.26684888  0.16163113     0.80300
O390        O  0.94275602  0.26088034  0.08670871    -0.58100
O391        O  0.92051525  0.31075394  0.10606509    -0.49000
C392        C  0.89044870  0.22101860  0.16589309     0.73000
O393        O  0.92337963  0.21462435  0.16821911    -0.43900
C394        C  0.93094689  0.30458481  0.24024793     0.77700
O395        O  0.98875200  0.23980846  0.16455458    -0.55800
O396        O  0.92458919  0.32016446  0.20309947    -0.45800
O397        O  0.99274461  0.29633535  0.15817647    -0.52200
C398        C  0.92953224  0.29006450  0.07420160     0.87900
O399        O  0.88202890  0.25338811  0.16168430    -0.54100
O400        O  0.93966203  0.27231438  0.23676866    -0.57400
C401        C  0.93100785  0.32264161  0.28334819    -0.10500
C402        C  0.93715914  0.33794102  0.31858323    -0.12100
C403        C  0.92557777  0.29820322  0.02669083    -0.10500
C404        C  0.92565961  0.29811855  0.98566337    -0.12100
C405        C  0.95021304  0.36231086  0.48613587    -0.10500
C406        C  0.95021592  0.36276835  0.52712124    -0.12100
C407        C  0.93754222  0.34064127  0.69499636    -0.10500
C408        C  0.93150093  0.32516528  0.73010779    -0.12100
C409        C  0.07857850  0.26443598  0.16211418    -0.10500
C410        C  0.04655395  0.26443702  0.16213014    -0.12100
C411        C  0.04703293  0.37625471  0.39613064    -0.10500
C412        C  0.07915166  0.37656126  0.39579161    -0.12100
C413        C  0.19464752  0.32444911  0.28150534    -0.10500
C414        C  0.18878142  0.33971016  0.31682222    -0.12100
C415        C  0.04711021  0.26505334  0.84818989    -0.10500
C416        C  0.07916927  0.26533613  0.84801336    -0.12100
C417        C  0.20002800  0.29942523  0.02556339    -0.10500
C418        C  0.20025137  0.29949054  0.98454500    -0.12100
C419        C  0.07936415  0.37730476  0.61572056    -0.10500
C420        C  0.04723334  0.37744617  0.61597089    -0.12100
C421        C  0.17610381  0.36290244  0.52566815    -0.10500
C422        C  0.17611245  0.36279098  0.48467474    -0.12100
C423        C  0.18969441  0.34087687  0.69354759    -0.10500
C424        C  0.19573996  0.32569596  0.72885622    -0.12100
C425        C  0.95979578  0.48809464  0.38728187    -0.10500
C426        C  0.95959419  0.45600846  0.38809334    -0.12100
C427        C  0.93109008  0.62040479  0.27929441    -0.10500
C428        C  0.93741815  0.60505772  0.31440887    -0.12100
C429        C  0.95903941  0.48998816  0.62179445    -0.10500
C430        C  0.95939739  0.45789849  0.62255514    -0.12100
C431        C  0.94941169  0.58344914  0.52333830    -0.10500
C432        C  0.94958234  0.58308866  0.48235625    -0.12100
C433        C  0.92339502  0.64648427  0.02372174    -0.10500
C434        C  0.92317526  0.64650704  0.98268377    -0.12100
C435        C  0.92930367  0.62309961  0.72601908    -0.10500
C436        C  0.93545824  0.60797357  0.69068733    -0.12100
C437        C  0.16649812  0.48937556  0.38786846    -0.10500
C438        C  0.16648881  0.45727275  0.38791885    -0.12100
C439        C  0.04707194  0.56926026  0.39430681    -0.10500
C440        C  0.07918519  0.56958340  0.39471581    -0.12100
C441        C  0.07779838  0.68124775  0.16212233    -0.10500
C442        C  0.04575501  0.68102246  0.16161236    -0.12100
C443        C  0.19483234  0.62230358  0.28158253    -0.10500
C444        C  0.18906999  0.60693716  0.31683986    -0.12100
C445        C  0.16615230  0.48995578  0.62171479    -0.10500
C446        C  0.16640540  0.45786312  0.62162880    -0.12100
C447        C  0.04600845  0.57036282  0.61424089    -0.10500
C448        C  0.07815083  0.57014505  0.61466716    -0.12100
C449        C  0.17539872  0.58436208  0.52560738    -0.10500
C450        C  0.17571033  0.58411068  0.48461008    -0.12100
C451        C  0.07682843  0.68235417  0.84821685    -0.10500
C452        C  0.04478753  0.68218847  0.84806720    -0.12100
C453        C  0.19789907  0.64845103  0.98491514    -0.10500
C454        C  0.19823417  0.64838633  0.02592456    -0.12100
C455        C  0.19360175  0.62285841  0.72885963    -0.10500
C456        C  0.18780520  0.60746413  0.69357762    -0.12100
C457        C  0.28319529  0.77528661  0.16634453    -0.10500
C458        C  0.26052364  0.75263356  0.16651752    -0.12100
C459        C  0.41328702  0.84192432  0.28052860    -0.10500
C460        C  0.42860762  0.84783888  0.31578833    -0.12100
C461        C  0.28285531  0.77510367  0.84346284    -0.10500
C462        C  0.25999986  0.75260697  0.84359406    -0.12100
C463        C  0.38824884  0.83618617  0.98387490    -0.10500
C464        C  0.38798027  0.83627502  0.02487546    -0.12100
C465        C  0.45103059  0.86046748  0.48363501    -0.10500
C466        C  0.45067231  0.86041840  0.52462042    -0.12100
C467        C  0.41262747  0.84086097  0.72779761    -0.10500
C468        C  0.42770762  0.84689256  0.69240529    -0.12100
C469        C  0.26157091  0.19512973  0.16636386    -0.10500
C470        C  0.28433191  0.17258924  0.16622334    -0.12100
C471        C  0.35415304  0.95782105  0.16143391    -0.10500
C472        C  0.35418560  0.98985156  0.16161083    -0.12100
C473        C  0.46589916  0.98955547  0.39450967    -0.10500
C474        C  0.46587086  0.95744039  0.39451116    -0.12100
C475        C  0.41367271  0.10566482  0.28116803    -0.10500
C476        C  0.42878136  0.09955340  0.31651645    -0.12100
C477        C  0.26204224  0.19550958  0.84301763    -0.10500
C478        C  0.28456828  0.17274025  0.84308323    -0.12100
C479        C  0.35463086  0.98957006  0.84811391    -0.10500
C480        C  0.35456502  0.95752340  0.84803369    -0.12100
C481        C  0.38944092  0.11102816  0.02528793    -0.10500
C482        C  0.38925113  0.11100011  0.98428275    -0.12100
C483        C  0.46522099  0.98924073  0.61528276    -0.10500
C484        C  0.46494459  0.95712133  0.61501418    -0.12100
C485        C  0.45145337  0.08588841  0.52532460    -0.10500
C486        C  0.45154582  0.08603885  0.48432781    -0.12100
C487        C  0.42849407  0.09951088  0.69301094    -0.10500
C488        C  0.41325481  0.10568904  0.72825047    -0.12100
C489        C  0.57818486  0.87002923  0.38714116    -0.10500
C490        C  0.54607429  0.87006887  0.38729175    -0.12100
C491        C  0.86288058  0.75038384  0.16618158    -0.10500
C492        C  0.84036287  0.77314454  0.16632058    -0.12100
C493        C  0.69580380  0.84699558  0.31622829    -0.10500
C494        C  0.71123372  0.84092669  0.28107703    -0.12100
C495        C  0.54504426  0.86987089  0.62109954    -0.10500
C496        C  0.57714325  0.87008754  0.62112479    -0.12100
C497        C  0.67222873  0.85996595  0.48391455    -0.10500
C498        C  0.67190294  0.85993562  0.52490653    -0.12100
C499        C  0.83987973  0.77457807  0.84145471    -0.10500
C500        C  0.86240249  0.75182988  0.84129771    -0.12100
C501        C  0.73657272  0.83587135  0.02498090    -0.10500
C502        C  0.73647002  0.83600490  0.98394729    -0.12100
C503        C  0.70987846  0.84167673  0.72806649    -0.10500
C504        C  0.69449751  0.84772305  0.69286293    -0.12100
C505        C  0.57827582  0.07666395  0.38735788    -0.10500
C506        C  0.54618582  0.07686922  0.38757530    -0.12100
C507        C  0.65900965  0.95710308  0.39430710    -0.10500
C508        C  0.65895501  0.98923535  0.39430179    -0.12100
C509        C  0.86431144  0.19335761  0.16720248    -0.10500
C510        C  0.84166225  0.17070557  0.16680748    -0.12100
C511        C  0.77071609  0.98858876  0.16144681    -0.10500
C512        C  0.77082037  0.95654348  0.16144305    -0.12100
C513        C  0.71090691  0.10521168  0.28048137    -0.10500
C514        C  0.69561662  0.09922891  0.31576012    -0.12100
C515        C  0.57805583  0.07663027  0.62160304    -0.10500
C516        C  0.54594564  0.07666098  0.62177011    -0.12100
C517        C  0.65821018  0.95726807  0.61314845    -0.10500
C518        C  0.65843849  0.98938542  0.61307651    -0.12100
C519        C  0.67258903  0.08649838  0.48356710    -0.10500
C520        C  0.67246136  0.08661444  0.52454495    -0.12100
C521        C  0.84096565  0.17251979  0.84253950    -0.10500
C522        C  0.86370547  0.19508631  0.84290483    -0.12100
C523        C  0.77113497  0.95750175  0.84735688    -0.10500
C524        C  0.77128213  0.98953762  0.84737735    -0.12100
C525        C  0.73695355  0.11043210  0.98336954    -0.10500
C526        C  0.73712284  0.11030968  0.02441421    -0.12100
C527        C  0.69594346  0.09882134  0.69216671    -0.10500
C528        C  0.71146421  0.10485132  0.72725605    -0.12100
loop_ 
_geom_bond_atom_site_label_1 
_geom_bond_atom_site_label_2 
_geom_bond_distance 
_geom_bond_site_symmetry_2 
_ccdc_geom_bond_type 
In1           O3   2.228       .  S
In1           O4   2.278       .  S
In1          O12   2.232       .  S
In1           O6   2.232       .  S
In1           O8   2.239       .  S
In1           O9   2.258       .  S
In1          O10   2.229       .  S
In1          O13   2.241       .  S
C2            O8   1.260       .  A
C2           O10   1.260       .  A
C2          C524   1.428   1_545  S
O3           C11   1.257       .  A
O4           C11   1.265       .  A
C5           O12   1.260       .  A
C5            O6   1.260       .  A
C5          C521   1.427       .  S
C7            O9   1.263       .  A
C7           O13   1.258       .  A
C7          C528   1.439       .  S
C11         C525   1.442       .  S
C14          C15   1.534       .  S
C14          C20   1.533       .  S
C14          C18   1.541       .  S
C14         C527   1.471       .  S
C15          H22   1.087       .  S
C15          C16   1.360       .  D
C16          C17   1.532       .  S
C16         C518   1.440   1_545  S
C17          C21   1.534       .  S
C17          C19   1.537       .  S
C17          H23   1.112       .  S
C18          H24   1.086       .  S
C18          C19   1.370       .  D
C19         C520   1.445       .  S
C20          H25   1.087       .  S
C20          C21   1.363       .  D
C21         C515   1.439       .  S
In26         O28   2.241       .  S
In26         O29   2.264       .  S
In26         O37   2.231       .  S
In26         O31   2.234       .  S
In26         O33   2.240       .  S
In26         O34   2.277       .  S
In26         O35   2.232       .  S
In26         O38   2.233       .  S
C27          O33   1.260       .  A
C27          O35   1.260       .  A
C27         C511   1.429   1_545  S
O28          C36   1.257       .  A
O29          C36   1.264       .  A
C30          O37   1.260       .  A
C30          O31   1.260       .  A
C30         C510   1.427       .  S
C32          O34   1.264       .  A
C32          O38   1.258       .  A
C32         C526   1.442       .  S
C36         C513   1.440       .  S
C39          C40   1.533       .  S
C39          C45   1.534       .  S
C39          C43   1.542       .  S
C39         C514   1.472       .  S
C40          H47   1.087       .  S
C40          C41   1.362       .  D
C41          C42   1.534       .  S
C41         C505   1.438       .  S
C42          C46   1.533       .  S
C42          C44   1.537       .  S
C42          H48   1.112       .  S
C43          H49   1.086       .  S
C43          C44   1.370       .  D
C44         C519   1.445       .  S
C45          H50   1.087       .  S
C45          C46   1.360       .  D
C46         C508   1.441   1_545  S
In51         O53   2.241       .  S
In51         O54   2.261       .  S
In51         O62   2.231       .  S
In51         O56   2.232       .  S
In51         O58   2.241       .  S
In51         O59   2.277       .  S
In51         O60   2.231       .  S
In51         O63   2.231       .  S
C52          O58   1.260       .  A
C52          O60   1.259       .  A
C52         C523   1.428       .  S
O53          C61   1.258       .  A
O54          C61   1.264       .  A
C55          O62   1.261       .  A
C55          O56   1.260       .  A
C55         C499   1.427       .  S
C57          O59   1.264       .  A
C57          O63   1.257       .  A
C57         C502   1.442       .  S
C61         C503   1.440       .  S
C64          C65   1.533       .  S
C64          C70   1.534       .  S
C64          C68   1.542       .  S
C64         C504   1.472       .  S
C65          H72   1.087       .  S
C65          C66   1.362       .  D
C66          C67   1.535       .  S
C66         C496   1.438       .  S
C67          C71   1.533       .  S
C67          C69   1.537       .  S
C67          H73   1.112       .  S
C68          H74   1.086       .  S
C68          C69   1.370       .  D
C69         C498   1.446       .  S
C70          H75   1.087       .  S
C70          C71   1.360       .  D
C71         C517   1.440       .  S
In76         O78   2.229       .  S
In76         O79   2.275       .  S
In76         O87   2.231       .  S
In76         O81   2.234       .  S
In76         O83   2.240       .  S
In76         O84   2.260       .  S
In76         O85   2.229       .  S
In76         O88   2.241       .  S
C77          O83   1.261       .  A
C77          O85   1.260       .  A
C77         C512   1.429       .  S
O78          C86   1.258       .  A
O79          C86   1.264       .  A
C80          O87   1.260       .  A
C80          O81   1.260       .  A
C80         C492   1.427       .  S
C82          O84   1.264       .  A
C82          O88   1.258       .  A
C82         C494   1.439       .  S
C86         C501   1.441       .  S
C89          C90   1.534       .  S
C89          C95   1.534       .  S
C89          C93   1.542       .  S
C89         C493   1.472       .  S
C90          H97   1.087       .  S
C90          C91   1.360       .  D
C91          C92   1.533       .  S
C91         C507   1.440       .  S
C92          C96   1.534       .  S
C92          C94   1.537       .  S
C92          H98   1.112       .  S
C93          H99   1.086       .  S
C93          C94   1.371       .  D
C94         C497   1.446       .  S
C95         H100   1.087       .  S
C95          C96   1.363       .  D
C96         C489   1.439       .  S
C101        C102   1.533       .  S
C101        C107   1.534       .  S
C101        C105   1.542       .  S
C101        C487   1.471       .  S
C102        H109   1.087       .  S
C102        C103   1.363       .  D
C103        C104   1.534       .  S
C103        C516   1.439       .  S
C104        C108   1.533       .  S
C104        C106   1.537       .  S
C104        H110   1.112       .  S
C105        H111   1.086       .  S
C105        C106   1.370       .  D
C106        C485   1.446       .  S
C107        H112   1.087       .  S
C107        C108   1.360       .  D
C108        C483   1.440   1_545  S
In113       O115   2.240       .  S
In113       O116   2.259       .  S
In113       O124   2.231       .  S
In113       O118   2.234       .  S
In113       O120   2.241       .  S
In113       O121   2.274       .  S
In113       O122   2.231       .  S
In113       O125   2.229       .  S
C114        O120   1.260       .  A
C114        O122   1.259       .  A
C114        C479   1.429   1_545  S
O115        C123   1.258       .  A
O116        C123   1.264       .  A
C117        O124   1.260       .  A
C117        O118   1.260       .  A
C117        C478   1.428       .  S
C119        O121   1.264       .  A
C119        O125   1.258       .  A
C119        C482   1.440       .  S
C123        C488   1.439       .  S
C126        C127   1.534       .  S
C126        C132   1.533       .  S
C126        C130   1.542       .  S
C126        C476   1.471       .  S
C127        H134   1.087       .  S
C127        C128   1.360       .  D
C128        C129   1.532       .  S
C128        C473   1.439   1_545  S
C129        C133   1.534       .  S
C129        C131   1.537       .  S
C129        H135   1.112       .  S
C130        H136   1.086       .  S
C130        C131   1.371       .  D
C131        C486   1.446       .  S
C132        H137   1.087       .  S
C132        C133   1.362       .  D
C133        C506   1.438       .  S
In138       O140   2.227       .  S
In138       O141   2.276       .  S
In138       O149   2.234       .  S
In138       O143   2.234       .  S
In138       O145   2.241       .  S
In138       O146   2.259       .  S
In138       O147   2.230       .  S
In138       O150   2.238       .  S
C139        O145   1.260       .  A
C139        O147   1.259       .  A
C139        C472   1.428   1_545  S
O140        C148   1.257       .  A
O141        C148   1.264       .  A
C142        O149   1.261       .  A
C142        O143   1.260       .  A
C142        C470   1.428       .  S
C144        O146   1.264       .  A
C144        O150   1.258       .  A
C144        C475   1.438       .  S
C148        C481   1.440       .  S
C151        C152   1.534       .  S
C151        C157   1.533       .  S
C151        C155   1.542       .  S
C151        C468   1.471       .  S
C152        H159   1.087       .  S
C152        C153   1.360       .  D
C153        C154   1.532       .  S
C153        C484   1.440       .  S
C154        C158   1.533       .  S
C154        C156   1.537       .  S
C154        H160   1.112       .  S
C155        H161   1.086       .  S
C155        C156   1.371       .  D
C156        C466   1.445       .  S
C157        H162   1.087       .  S
C157        C158   1.362       .  D
C158        C495   1.438       .  S
In163       O165   2.225       .  S
In163       O166   2.276       .  S
In163       O174   2.235       .  S
In163       O168   2.236       .  S
In163       O170   2.241       .  S
In163       O171   2.260       .  S
In163       O172   2.232       .  S
In163       O175   2.238       .  S
C164        O170   1.260       .  A
C164        O172   1.259       .  A
C164        C480   1.429       .  S
O165        C173   1.257       .  A
O166        C173   1.264       .  A
C167        O174   1.261       .  A
C167        O168   1.260       .  A
C167        C461   1.430       .  S
C169        O171   1.264       .  A
C169        O175   1.258       .  A
C169        C467   1.439       .  S
C173        C463   1.440       .  S
C176        C177   1.533       .  S
C176        C182   1.534       .  S
C176        C180   1.541       .  S
C176        C460   1.471       .  S
C177        H184   1.087       .  S
C177        C178   1.362       .  D
C178        C179   1.535       .  S
C178        C490   1.439       .  S
C179        C183   1.533       .  S
C179        C181   1.538       .  S
C179        H185   1.112       .  S
C180        H186   1.086       .  S
C180        C181   1.370       .  D
C181        C465   1.446       .  S
C182        H187   1.087       .  S
C182        C183   1.360       .  D
C183        C474   1.439       .  S
In188       O190   2.239       .  S
In188       O191   2.259       .  S
In188       O199   2.232       .  S
In188       O193   2.234       .  S
In188       O195   2.238       .  S
In188       O196   2.273       .  S
In188       O197   2.230       .  S
In188       O200   2.230       .  S
C189        O195   1.260       .  A
C189        O197   1.260       .  A
C189        C471   1.428       .  S
O190        C198   1.258       .  A
O191        C198   1.263       .  A
C192        O199   1.260       .  A
C192        O193   1.260       .  A
C192        C457   1.428       .  S
C194        O196   1.264       .  A
C194        O200   1.258       .  A
C194        C464   1.440       .  S
C198        C459   1.438       .  S
In201       O203   2.242       .  S
In201       O204   2.262       .  S
In201       O212   2.233       .  S
In201       O206   2.236       .  S
In201       O208   2.240       .  S
In201       O209   2.275       .  S
In201       O210   2.231       .  S
In201       O213   2.231       .  S
C202        O208   1.260       .  A
C202        O210   1.259       .  A
C202        C451   1.428       .  S
O203        C211   1.258       .  A
O204        C211   1.264       .  A
C205        O212   1.260       .  A
C205        O206   1.260       .  A
C205        C462   1.429       .  S
C207        O209   1.264       .  A
C207        O213   1.258       .  A
C207        C453   1.441       .  S
C211        C455   1.440       .  S
C214        C215   1.533       .  S
C214        C220   1.534       .  S
C214        C218   1.542       .  S
C214        C456   1.473       .  S
C215        H222   1.087       .  S
C215        C216   1.363       .  D
C216        C217   1.534       .  S
C216        C445   1.438       .  S
C217        C221   1.533       .  S
C217        C219   1.537       .  S
C217        H223   1.112       .  S
C218        H224   1.086       .  S
C218        C219   1.371       .  D
C219        C449   1.446       .  S
C220        H225   1.087       .  S
C220        C221   1.360       .  D
C221        C448   1.441       .  S
In226       O228   2.226       .  S
In226       O229   2.274       .  S
In226       O237   2.232       .  S
In226       O231   2.235       .  S
In226       O233   2.240       .  S
In226       O234   2.259       .  S
In226       O235   2.230       .  S
In226       O238   2.239       .  S
C227        O233   1.260       .  A
C227        O235   1.259       .  A
C227        C441   1.428       .  S
O228        C236   1.258       .  A
O229        C236   1.264       .  A
C230        O237   1.260       .  A
C230        O231   1.260       .  A
C230        C458   1.428       .  S
C232        O234   1.263       .  A
C232        O238   1.258       .  A
C232        C443   1.438       .  S
C236        C454   1.440       .  S
C239        C240   1.534       .  S
C239        C245   1.533       .  S
C239        C243   1.542       .  S
C239        C444   1.471       .  S
C240        H247   1.087       .  S
C240        C241   1.360       .  D
C241        C242   1.532       .  S
C241        C440   1.439       .  S
C242        C246   1.534       .  S
C242        C244   1.537       .  S
C242        H248   1.112       .  S
C243        H249   1.086       .  S
C243        C244   1.371       .  D
C244        C450   1.446       .  S
C245        H250   1.087       .  S
C245        C246   1.362       .  D
C246        C437   1.439       .  S
In251       O253   2.229       .  S
In251       O254   2.279       .  S
In251       O262   2.232       .  S
In251       O256   2.232       .  S
In251       O258   2.239       .  S
In251       O259   2.261       .  S
In251       O260   2.230       .  S
In251       O263   2.240       .  S
C252        O258   1.260   1_455  A
C252        O260   1.260   1_455  A
C252        C452   1.428       .  S
O253        C261   1.257       .  A
O254        C261   1.264       .  A
C255        O262   1.261       .  A
C255        O256   1.260       .  A
C255        C500   1.427       .  S
C257        O259   1.264       .  A
C257        O263   1.258       .  A
C257        C435   1.439       .  S
C261        C434   1.442       .  S
C264        C265   1.534       .  S
C264        C270   1.533       .  S
C264        C268   1.542       .  S
C264        C436   1.471       .  S
C265        H272   1.087   1_655  S
C265        C266   1.360   1_655  D
C266        C267   1.533   1_455  S
C266        C447   1.441       .  S
C267        C271   1.534       .  S
C267        C269   1.537       .  S
C267        H273   1.112       .  S
C268        H274   1.086       .  S
C268        C269   1.371       .  D
C269        C431   1.446       .  S
C270        H275   1.087       .  S
C270        C271   1.362       .  D
C271        C429   1.438       .  S
In276       O278   2.239       .  S
In276       O279   2.258       .  S
In276       O287   2.232       .  S
In276       O281   2.232       .  S
In276       O283   2.241       .  S
In276       O284   2.277       .  S
In276       O285   2.231       .  S
In276       O288   2.231       .  S
C277        O283   1.260   1_455  A
C277        O285   1.259   1_455  A
C277        C442   1.428       .  S
O278        C286   1.258       .  A
O279        C286   1.264       .  A
C280        O287   1.261       .  A
C280        O281   1.260       .  A
C280        C491   1.427       .  S
C282        O284   1.264       .  A
C282        O288   1.257       .  A
C282        C433   1.442       .  S
C286        C427   1.438       .  S
C289        C290   1.533       .  S
C289        C295   1.534       .  S
C289        C293   1.542       .  S
C289        C428   1.471       .  S
C290        H297   1.087       .  S
C290        C291   1.363       .  D
C291        C292   1.534       .  S
C291        C425   1.438       .  S
C292        C296   1.533   1_655  S
C292        C294   1.536       .  S
C292        H298   1.112       .  S
C293        H299   1.086       .  S
C293        C294   1.370       .  D
C294        C432   1.445       .  S
C295        H300   1.087   1_655  S
C295        C296   1.360   1_655  D
C296        C439   1.439       .  S
C301        C302   1.534       .  S
C301        C307   1.533       .  S
C301        C305   1.542       .  S
C301        C423   1.471       .  S
C302        H309   1.087       .  S
C302        C303   1.360       .  D
C303        C304   1.533       .  S
C303        C419   1.440       .  S
C304        C308   1.534       .  S
C304        C306   1.537       .  S
C304        H310   1.112       .  S
C305        H311   1.086       .  S
C305        C306   1.370       .  D
C306        C421   1.446       .  S
C307        H312   1.087       .  S
C307        C308   1.362       .  D
C308        C446   1.438       .  S
In313       O315   2.228       .  S
In313       O316   2.275       .  S
In313       O324   2.234       .  S
In313       O318   2.234       .  S
In313       O320   2.241       .  S
In313       O321   2.261       .  S
In313       O322   2.233       .  S
In313       O325   2.238       .  S
C314        O320   1.260       .  A
C314        O322   1.260       .  A
C314        C416   1.429       .  S
O315        C323   1.258       .  A
O316        C323   1.264       .  A
C317        O324   1.260       .  A
C317        O318   1.260       .  A
C317        C477   1.428       .  S
C319        O321   1.263       .  A
C319        O325   1.257       .  A
C319        C424   1.438       .  S
C323        C418   1.441       .  S
C326        C327   1.533       .  S
C326        C332   1.534       .  S
C326        C330   1.542       .  S
C326        C414   1.471       .  S
C327        H334   1.087       .  S
C327        C328   1.362       .  D
C328        C329   1.534       .  S
C328        C438   1.439       .  S
C329        C333   1.532       .  S
C329        C331   1.537       .  S
C329        H335   1.112       .  S
C330        H336   1.086       .  S
C330        C331   1.371       .  D
C331        C422   1.446       .  S
C332        H337   1.087       .  S
C332        C333   1.360       .  D
C333        C412   1.439       .  S
In338       O340   2.241       .  S
In338       O341   2.260       .  S
In338       O349   2.231       .  S
In338       O343   2.234       .  S
In338       O345   2.240       .  S
In338       O346   2.276       .  S
In338       O347   2.228       .  S
In338       O350   2.230       .  S
C339        O345   1.260       .  A
C339        O347   1.259       .  A
C339        C409   1.427       .  S
O340        C348   1.258       .  A
O341        C348   1.263       .  A
C342        O349   1.261       .  A
C342        O343   1.260       .  A
C342        C469   1.428       .  S
C344        O346   1.264       .  A
C344        O350   1.257       .  A
C344        C417   1.441       .  S
C348        C413   1.439       .  S
C351        C352   1.533       .  S
C351        C357   1.534       .  S
C351        C355   1.542       .  S
C351        C407   1.471       .  S
C352        H359   1.087       .  S
C352        C353   1.363       .  D
C353        C354   1.534       .  S
C353        C430   1.438       .  S
C354        C358   1.533   1_655  S
C354        C356   1.537       .  S
C354        H360   1.112       .  S
C355        H361   1.086       .  S
C355        C356   1.370       .  D
C356        C406   1.446       .  S
C357        H362   1.087   1_655  S
C357        C358   1.360   1_655  D
C358        C420   1.440       .  S
In363       O365   2.239       .  S
In363       O366   2.259       .  S
In363       O374   2.231       .  S
In363       O368   2.233       .  S
In363       O370   2.242       .  S
In363       O371   2.275       .  S
In363       O372   2.230       .  S
In363       O375   2.231       .  S
C364        O370   1.261   1_455  A
C364        O372   1.259   1_455  A
C364        C415   1.429       .  S
O365        C373   1.258       .  A
O366        C373   1.264       .  A
C367        O374   1.260       .  A
C367        O368   1.260       .  A
C367        C522   1.427       .  S
C369        O371   1.264       .  A
C369        O375   1.258       .  A
C369        C404   1.441       .  S
C373        C408   1.438       .  S
C376        C377   1.534       .  S
C376        C382   1.533       .  S
C376        C380   1.542       .  S
C376        C402   1.472       .  S
C377        H384   1.087   1_655  S
C377        C378   1.360   1_655  D
C378        C379   1.532   1_455  S
C378        C411   1.440       .  S
C379        C383   1.534       .  S
C379        C381   1.537       .  S
C379        H385   1.112       .  S
C380        H386   1.086       .  S
C380        C381   1.371       .  D
C381        C405   1.446       .  S
C382        H387   1.087       .  S
C382        C383   1.362       .  D
C383        C426   1.438       .  S
In388       O390   2.227       .  S
In388       O391   2.277       .  S
In388       O399   2.231       .  S
In388       O393   2.232       .  S
In388       O395   2.236       .  S
In388       O396   2.261       .  S
In388       O397   2.229       .  S
In388       O400   2.241       .  S
C389        O395   1.260   1_455  A
C389        O397   1.260   1_455  A
C389        C410   1.427       .  S
O390        C398   1.257       .  A
O391        C398   1.265       .  A
C392        O399   1.261       .  A
C392        O393   1.260       .  A
C392        C509   1.427       .  S
C394        O396   1.264       .  A
C394        O400   1.258       .  A
C394        C401   1.440       .  S
C398        C403   1.441       .  S
C401        C402   1.209       .  T
C403        C404   1.209   1_554  T
C405        C406   1.208       .  T
C407        C408   1.208       .  T
C409        C410   1.201       .  T
C411        C412   1.204       .  T
C413        C414   1.208       .  T
C415        C416   1.202       .  T
C417        C418   1.209   1_554  T
C419        C420   1.205       .  T
C421        C422   1.208       .  T
C423        C424   1.208       .  T
C425        C426   1.204       .  T
C427        C428   1.208       .  T
C429        C430   1.204       .  T
C431        C432   1.208       .  T
C433        C434   1.210   1_554  T
C435        C436   1.208       .  T
C437        C438   1.204       .  T
C439        C440   1.204       .  T
C441        C442   1.202       .  T
C443        C444   1.208       .  T
C445        C446   1.204       .  T
C447        C448   1.205       .  T
C449        C450   1.209       .  T
C451        C452   1.201       .  T
C453        C454   1.209   1_556  T
C455        C456   1.209       .  T
C457        C458   1.202       .  T
C459        C460   1.208       .  T
C461        C462   1.202       .  T
C463        C464   1.209   1_556  T
C465        C466   1.208       .  T
C467        C468   1.208       .  T
C469        C470   1.202       .  T
C471        C472   1.201       .  T
C473        C474   1.204       .  T
C475        C476   1.208       .  T
C477        C478   1.201       .  T
C479        C480   1.202       .  T
C481        C482   1.209   1_554  T
C483        C484   1.205       .  T
C485        C486   1.208       .  T
C487        C488   1.208       .  T
C489        C490   1.204       .  T
C491        C492   1.201       .  T
C493        C494   1.209       .  T
C495        C496   1.204       .  T
C497        C498   1.208       .  T
C499        C500   1.201       .  T
C501        C502   1.210   1_554  T
C503        C504   1.209       .  T
C505        C506   1.203       .  T
C507        C508   1.205       .  T
C509        C510   1.201       .  T
C511        C512   1.202       .  T
C513        C514   1.209       .  T
C515        C516   1.204       .  T
C517        C518   1.205       .  T
C519        C520   1.208       .  T
C521        C522   1.201       .  T
C523        C524   1.201       .  T
C525        C526   1.210   1_556  T
C527        C528   1.208       .  T
