geometry optimzed in LAMMPS
_audit_creation_date              2020-11-30 
_audit_creation_method            'lammps2cif' 
_symmetry_space_group_name_H-M    'P1' 
_symmetry_Int_Tables_number       1 
_symmetry_cell_setting            triclinic 
loop_ 
_symmetry_equiv_pos_as_xyz 
  x,y,z 
_cell_length_a                    44.20839251 
_cell_length_b                    44.17638784573062 
_cell_length_c                    45.507605981035724 
_cell_angle_alpha                 90.13983648831378 
_cell_angle_beta                  89.96621228057704 
_cell_angle_gamma                 89.52415309528021 
loop_ 
_atom_site_label 
_atom_site_type_symbol 
_atom_site_fract_x 
_atom_site_fract_y 
_atom_site_fract_z 
_atom_site_charge 
O1          O  0.00438121  0.15041492  0.02846739    -0.74400
C2          C  0.99610776  0.20669018  0.10942982     0.86600
O3          O  0.07455556  0.11253816  0.10174387    -0.75600
O4          O  0.47464982  0.12834277  0.16139720    -0.77000
O5          O  0.43686890  0.10286308  0.06537421    -0.76800
O6          O  0.49840466  0.10009205  0.02706876    -0.75500
Zn7        Zn  0.01930995  0.15542700  0.07013837     1.55700
O8          O  0.42663187  0.13762160  0.09982633    -0.76900
Cd9        Cd  0.48250441  0.09411398  0.06929473     1.59700
Cd10       Cd  0.03151874  0.10646798  0.11964308     1.59600
O11         O  0.48914101  0.05124072  0.08778867    -0.76800
O12         O  0.00086705  0.12540489  0.09414882    -1.87400
Cd13       Cd  0.46919950  0.14391207  0.11885917     1.59900
O14         O  0.02293738  0.06092489  0.12303357    -0.76800
O15         O  0.47760729  0.18941012  0.12245991    -0.75500
C16         C  0.08235775  0.12906626  0.08008895     0.87100
C17         C  0.00136631  0.12561118  0.01430849     0.86700
O18         O  0.01302454  0.19745021  0.08840609    -0.74400
C19         C  0.41862362  0.12088648  0.07829958     0.87500
O20         O  0.06376713  0.14652257  0.06703201    -0.74500
C21         C  0.50548631  0.04290169  0.10950844     0.87700
C22         C  0.49972687  0.12547590  0.17508987     0.88000
O23         O  0.02509013  0.12241749  0.16192156    -0.76900
O24         O  0.02479037  0.12997018  0.41095994    -0.74400
C25         C  0.08136877  0.12220538  0.33009489     0.86600
O26         O  0.48644540  0.20036040  0.33837489    -0.75600
O27         O  0.00281008  0.10100887  0.27784107    -0.77000
O28         O  0.47735597  0.06252368  0.37328524    -0.76800
O29         O  0.47451784  0.12382116  0.41222717    -0.75500
Zn30       Zn  0.02985061  0.14503930  0.36937462     1.55700
O31         O  0.01202849  0.05248034  0.33875549    -0.76900
Cd32       Cd  0.46860699  0.10816148  0.36983736     1.59700
Cd33       Cd  0.48054632  0.15743612  0.31995268     1.59600
O34         O  0.42579211  0.11433438  0.35107470    -0.76800
O35         O  0.99985713  0.12670377  0.34516365    -1.87400
Cd36       Cd  0.01859739  0.09526236  0.32026320     1.59900
O37         O  0.43505954  0.14836454  0.31601995    -0.76800
O38         O  0.06419767  0.10372876  0.31679664    -0.75500
C39         C  0.00318568  0.20809784  0.35994512     0.87100
C40         C  0.00000801  0.12685854  0.42505359     0.86700
O41         O  0.07194810  0.13891482  0.35122767    -0.74400
C42         C  0.49521732  0.04431370  0.36012123     0.87500
O43         O  0.02086035  0.18949124  0.37270948    -0.74500
C44         C  0.41729482  0.13048315  0.32928458     0.87700
C45         C  0.49962600  0.12613898  0.26431761     0.88000
O46         O  0.49655606  0.15145598  0.27764880    -0.76900
O47         O  0.42901459  0.36168828  0.15013026    -0.74400
C48         C  0.50088401  0.37431756  0.07638525     0.86600
O49         O  0.01388718  0.30054709  0.16340902    -0.75600
O50         O  0.07514918  0.38620549  0.15039255    -0.77000
O51         O  0.48838763  0.44842221  0.16229799    -0.76800
O52         O  0.43648248  0.39695463  0.18453053    -0.75500
Zn53       Zn  0.47108043  0.35596403  0.13195263     1.55700
O54         O  0.02363224  0.43848650  0.12827865    -0.76900
Cd55       Cd  0.48200249  0.40573212  0.18099423     1.59700
Cd56       Cd  0.02005022  0.34354259  0.18165583     1.59600
O57         O  0.49760576  0.40029184  0.22349515    -0.76800
O58         O  0.50097824  0.37427380  0.15627674    -1.87400
Cd59       Cd  0.03232334  0.39279194  0.13169198     1.59900
O60         O  0.00389398  0.34984913  0.22389680    -0.76800
O61         O  0.02636852  0.37726451  0.08924543    -0.75500
C62         C  0.49742641  0.29288028  0.14160840     0.87100
C63         C  0.41948960  0.37826807  0.17130104     0.86700
O64         O  0.47608600  0.37119850  0.09044558    -0.74400
C65         C  0.00545274  0.45662512  0.14113907     0.87500
O66         O  0.48009842  0.31158082  0.12855043    -0.74500
C67         C  0.00062783  0.37520509  0.23712279     0.87700
C68         C  0.08357125  0.36992801  0.17212931     0.88000
O69         O  0.06565095  0.35225331  0.18547213    -0.76900
O70         O  0.48741983  0.30350403  0.41329063    -0.74400
C71         C  0.49935410  0.37559695  0.48713509     0.86600
O72         O  0.42546173  0.38842729  0.40036406    -0.75600
O73         O  0.01130067  0.44970678  0.41335960    -0.77000
O74         O  0.07338751  0.36337778  0.40096915    -0.76800
O75         O  0.02230418  0.31169157  0.37875473    -0.75500
Zn76       Zn  0.48107296  0.34557772  0.43149472     1.55700
O77         O  0.06349081  0.39804779  0.43558585    -0.76900
Cd78       Cd  0.03067493  0.35717611  0.38232726     1.59700
Cd79       Cd  0.46835276  0.39456904  0.38204297     1.59600
O80         O  0.02497232  0.37290804  0.33992600    -0.76800
O81         O  0.49922310  0.37562430  0.40730042    -1.87400
Cd82       Cd  0.01786228  0.40690289  0.43196113     1.59900
O83         O  0.47451810  0.37869851  0.33964900    -0.76800
O84         O  0.00222977  0.40108528  0.47429744    -0.75500
C85         C  0.41786593  0.37181573  0.42204069     0.87100
C86         C  0.50410788  0.29432126  0.39206764     0.86700
O87         O  0.49627870  0.35075434  0.47305363    -0.74400
C88         C  0.08159644  0.38003716  0.42246726     0.87500
O89         O  0.43660184  0.35435330  0.43490067    -0.74500
C90         C  0.99983522  0.37577771  0.32635402     0.87700
C91         C  0.99475683  0.45806695  0.39179382     0.88000
O92         O  0.47701325  0.44011193  0.37854058    -0.76900
O93         O  0.22624819  0.37014950  0.28505244    -0.74400
C94         C  0.16964445  0.37731652  0.20396008     0.86600
O95         O  0.26451899  0.29980892  0.21197489    -0.75600
O96         O  0.24825489  0.39928954  0.15199125    -0.77000
O97         O  0.27270304  0.43823659  0.24779581    -0.76800
O98         O  0.27648223  0.37668623  0.28610978    -0.75500
Zn99       Zn  0.22114927  0.35499961  0.24340032     1.55700
O100        O  0.23789853  0.44761210  0.21331777    -0.76900
Cd101      Cd  0.28210671  0.39259607  0.24385111     1.59700
Cd102      Cd  0.27043831  0.34281738  0.19386360     1.59600
O103        O  0.32493076  0.38655174  0.22495279    -0.76800
O104        O  0.25104886  0.37353008  0.21922504    -1.87400
Cd105      Cd  0.23219141  0.40480144  0.19438980     1.59900
O106        O  0.31595547  0.35194545  0.19017630    -0.76800
O107        O  0.18675195  0.39577475  0.19063261    -0.75500
C108        C  0.24790969  0.29194956  0.23358430     0.87100
C109        C  0.25107330  0.37340871  0.29904117     0.86700
O110        O  0.17905899  0.36090055  0.22522441    -0.74400
C111        C  0.25441045  0.45609778  0.23480689     0.87500
O112        O  0.23024445  0.31048882  0.24657362    -0.74500
C113        C  0.33358930  0.37009465  0.20334328     0.87700
C114        C  0.25144133  0.37416383  0.13833552     0.88000
O115        O  0.25454501  0.34884907  0.15154581    -0.76900
O116        O  0.27531551  0.37804197  0.03507216    -0.74400
C117        C  0.33174432  0.37047403  0.45419443     0.86600
O118        O  0.23728012  0.44835393  0.46207687    -0.75600
O119        O  0.25340481  0.34863430  0.40193180    -0.77000
O120        O  0.22834583  0.30997689  0.49754807    -0.76800
O121        O  0.22510233  0.37137008  0.03624399    -0.75500
Zn122      Zn  0.28032811  0.39327003  0.49353655     1.55700
O123        O  0.26340105  0.30050571  0.46325440    -0.76900
Cd124      Cd  0.21924065  0.35567441  0.49390571     1.59700
Cd125      Cd  0.23131795  0.40532199  0.44401980     1.59600
O126        O  0.17631005  0.36238168  0.47551048    -0.76800
O127        O  0.25041880  0.37462702  0.46935348    -1.87400
Cd128      Cd  0.26914076  0.34323008  0.44443652     1.59900
O129        O  0.18579535  0.39678058  0.44082415    -0.76800
O130        O  0.31453231  0.35202949  0.44093846    -0.75500
C131        C  0.25361116  0.45629147  0.48385935     0.87100
C132        C  0.25053590  0.37463917  0.04910476     0.86700
O133        O  0.32243522  0.38721319  0.47535480    -0.74400
C134        C  0.24674618  0.29208875  0.48463277     0.87500
O135        O  0.27116395  0.43781021  0.49696843    -0.74500
C136        C  0.16785698  0.37911133  0.45411323     0.87700
C137        C  0.25013963  0.37370575  0.38831820     0.88000
O138        O  0.24689805  0.39904123  0.40158024    -0.76900
O139        O  0.32295283  0.13734617  0.02578077    -0.74400
C140        C  0.25072965  0.12503558  0.45231436     0.86600
O141        O  0.23756867  0.19854868  0.03956593    -0.75600
O142        O  0.17684172  0.11246068  0.02622807    -0.77000
O143        O  0.26374276  0.05070391  0.03805227    -0.76800
O144        O  0.31511095  0.10216131  0.06006159    -0.75500
Zn145      Zn  0.28077319  0.14350604  0.00786219     1.55700
O146        O  0.22880921  0.06016649  0.00372806    -0.76900
Cd147      Cd  0.26969223  0.09348349  0.05683492     1.59700
Cd148      Cd  0.23185854  0.15554859  0.05761884     1.59600
O149        O  0.25410923  0.09896856  0.09941322    -0.76800
O150        O  0.25093628  0.12485422  0.03208723    -1.87400
Cd151      Cd  0.21970932  0.10587842  0.00756775     1.59900
O152        O  0.24759977  0.14937312  0.09998096    -0.76800
O153        O  0.22537468  0.12166537  0.46530577    -0.75500
C154        C  0.25388051  0.20647034  0.01777911     0.87100
C155        C  0.33231521  0.12054527  0.04678503     0.86700
O156        O  0.27558324  0.12840029  0.46622372    -0.74400
C157        C  0.24708619  0.04225304  0.01667190     0.87500
O158        O  0.27155267  0.18802473  0.00466845    -0.74500
C159        C  0.25081777  0.12404103  0.11313439     0.87700
C160        C  0.16843724  0.12910731  0.04779205     0.88000
O161        O  0.18637770  0.14682972  0.06107538    -0.76900
O162        O  0.32196154  0.13788007  0.27572698    -0.74400
C163        C  0.24978143  0.12393130  0.20240471     0.86600
O164        O  0.23682890  0.19866554  0.28893011    -0.75600
O165        O  0.17610996  0.11208035  0.27694654    -0.77000
O166        O  0.26365096  0.05086632  0.28853398    -0.76800
O167        O  0.31469330  0.10313125  0.31051602    -0.75500
Zn168      Zn  0.27980381  0.14320014  0.25763544     1.55700
O169        O  0.22822597  0.05979043  0.25453845    -0.76900
Cd170      Cd  0.26931692  0.09384407  0.30709371     1.59700
Cd171      Cd  0.23098600  0.15581675  0.30744029     1.59600
O172        O  0.25375369  0.09968266  0.34960908    -0.76800
O173        O  0.25011581  0.12485368  0.28218729    -1.87400
Cd174      Cd  0.21888242  0.10550415  0.25798280     1.59900
O175        O  0.24731755  0.15011156  0.34966941    -0.76800
O176        O  0.22441984  0.12078669  0.21546601    -0.75500
C177        C  0.25310033  0.20629998  0.26700257     0.87100
C178        C  0.33157176  0.12169696  0.29706795     0.86700
O179        O  0.27464968  0.12740911  0.21625923    -0.74400
C180        C  0.24682448  0.04212457  0.26737774     0.87500
O181        O  0.27053667  0.18761573  0.25392566    -0.74500
C182        C  0.25073998  0.12493958  0.36307053     0.87700
C183        C  0.16760376  0.12883878  0.29840603     0.88000
O184        O  0.18542380  0.14693852  0.31140463    -0.76900
C185        C  0.25123469  0.12507411  0.42090579    -0.09200
C186        C  0.25115769  0.12503490  0.39447922    -0.10800
C187        C  0.25033222  0.12371062  0.17098538    -0.09200
C188        C  0.25064768  0.12375045  0.14455443    -0.10800
C189        C  0.25152343  0.48674138  0.49502776    -0.09200
C190        C  0.24956174  0.01174470  0.00572767    -0.10800
C191        C  0.24942003  0.26168732  0.49567874    -0.09200
C192        C  0.25157497  0.23682182  0.00653255    -0.10800
C193        C  0.25018618  0.37342955  0.35689475    -0.09200
C194        C  0.25043143  0.37336140  0.33046147    -0.10800
C195        C  0.25146408  0.37437663  0.10692805    -0.09200
C196        C  0.25124198  0.37452356  0.08050532    -0.10800
C197        C  0.25174051  0.48657954  0.24583126    -0.09200
C198        C  0.24950942  0.01158624  0.25650548    -0.10800
C199        C  0.25120952  0.23664562  0.25565863    -0.09200
C200        C  0.24972905  0.26152716  0.24474097    -0.10800
C201        C  0.13721552  0.37782727  0.44367447    -0.09200
C202        C  0.11212124  0.37816997  0.43321063    -0.10800
C203        C  0.36240473  0.37271348  0.44388368    -0.09200
C204        C  0.38743464  0.37304310  0.43322328    -0.10800
C205        C  0.00006190  0.37568204  0.29494766    -0.09200
C206        C  0.00032205  0.37551138  0.26852672    -0.10800
C207        C  0.49963714  0.37487213  0.01854627    -0.09200
C208        C  0.50009854  0.37451921  0.04497192    -0.10800
C209        C  0.11404504  0.37221170  0.18303679    -0.09200
C210        C  0.13905755  0.37436393  0.19353378    -0.10800
C211        C  0.38894635  0.37516017  0.18178272    -0.09200
C212        C  0.36399215  0.37273828  0.19234938    -0.10800
C213        C  0.11204378  0.12482271  0.31978810    -0.09200
C214        C  0.13711758  0.12671304  0.30935160    -0.10800
C215        C  0.36207390  0.12513168  0.30752309    -0.09200
C216        C  0.38695779  0.12774045  0.31817798    -0.10800
C217        C  0.99644322  0.48860223  0.38112132    -0.09200
C218        C  0.49663551  0.01369019  0.37065480    -0.10800
C219        C  0.00186199  0.23855213  0.37111891    -0.09200
C220        C  0.50208251  0.26361902  0.38176127    -0.10800
C221        C  0.00122544  0.12640771  0.48289641    -0.09200
C222        C  0.00081453  0.12674621  0.45646886    -0.10800
C223        C  0.49947628  0.12591329  0.23291460    -0.09200
C224        C  0.49944231  0.12571073  0.20649370    -0.10800
C225        C  0.11284182  0.12766333  0.06911078    -0.09200
C226        C  0.13786822  0.12761650  0.05845419    -0.10800
C227        C  0.36305261  0.12258571  0.05686677    -0.09200
C228        C  0.38815170  0.12260152  0.06734257    -0.10800
C229        C  0.50394456  0.01230200  0.12003439    -0.09200
C230        C  0.00392284  0.48720298  0.13048388    -0.10800
C231        C  0.49863379  0.26239226  0.13052072    -0.09200
C232        C  0.99825698  0.23734049  0.11985462    -0.10800
O233        O  0.00438117  0.15041491  0.52846737    -0.74400
C234        C  0.99610761  0.20669025  0.60942984     0.86600
O235        O  0.07455555  0.11253821  0.60174382    -0.75600
O236        O  0.47464983  0.12834287  0.66139720    -0.77000
O237        O  0.43686897  0.10286304  0.56537421    -0.76800
O238        O  0.49840468  0.10009204  0.52706876    -0.75500
Zn239      Zn  0.01930989  0.15542703  0.57013838     1.55700
O240        O  0.42663193  0.13762162  0.59982630    -0.76900
Cd241      Cd  0.48250446  0.09411397  0.56929472     1.59700
Cd242      Cd  0.03151870  0.10646801  0.61964306     1.59600
O243        O  0.48914104  0.05124070  0.58778861    -0.76800
O244        O  0.00086700  0.12540491  0.59414882    -1.87400
Cd245      Cd  0.46919951  0.14391210  0.61885913     1.59900
O246        O  0.02293733  0.06092496  0.62303359    -0.76800
O247        O  0.47760725  0.18941012  0.62245985    -0.75500
C248        C  0.08235767  0.12906626  0.58008898     0.87100
C249        C  0.00136631  0.12561130  0.51430850     0.86700
O250        O  0.01302451  0.19745020  0.58840604    -0.74400
C251        C  0.41862357  0.12088648  0.57829952     0.87500
O252        O  0.06376712  0.14652261  0.56703198    -0.74500
C253        C  0.50548637  0.04290158  0.60950846     0.87700
C254        C  0.49972681  0.12547594  0.67508987     0.88000
O255        O  0.02509010  0.12241756  0.66192154    -0.76900
O256        O  0.02479037  0.12997019  0.91095996    -0.74400
C257        C  0.08136881  0.12220539  0.83009490     0.86600
O258        O  0.48644541  0.20036046  0.83837493    -0.75600
O259        O  0.00281010  0.10100893  0.77784107    -0.77000
O260        O  0.47735600  0.06252375  0.87328522    -0.76800
O261        O  0.47451782  0.12382118  0.91222716    -0.75500
Zn262      Zn  0.02985063  0.14503933  0.86937463     1.55700
O263        O  0.01202852  0.05248041  0.83875544    -0.76900
Cd264      Cd  0.46860702  0.10816149  0.86983734     1.59700
Cd265      Cd  0.48054634  0.15743620  0.81995268     1.59600
O266        O  0.42579214  0.11433439  0.85107470    -0.76800
O267        O  0.99985715  0.12670381  0.84516365    -1.87400
Cd268      Cd  0.01859740  0.09526241  0.82026319     1.59900
O269        O  0.43505953  0.14836457  0.81601995    -0.76800
O270        O  0.06419762  0.10372877  0.81679663    -0.75500
C271        C  0.00318575  0.20809787  0.85994517     0.87100
C272        C  0.00000800  0.12685853  0.92505360     0.86700
O273        O  0.07194813  0.13891479  0.85122770    -0.74400
C274        C  0.49521736  0.04431357  0.86012130     0.87500
O275        O  0.02086037  0.18949128  0.87270947    -0.74500
C276        C  0.41729487  0.13048319  0.82928454     0.87700
C277        C  0.49962595  0.12613918  0.76431760     0.88000
O278        O  0.49655610  0.15145605  0.77764879    -0.76900
O279        O  0.42901458  0.36168827  0.65013027    -0.74400
C280        C  0.50088404  0.37431754  0.57638525     0.86600
O281        O  0.01388719  0.30054707  0.66340905    -0.75600
O282        O  0.07514916  0.38620549  0.65039256    -0.77000
O283        O  0.48838768  0.44842221  0.66229800    -0.76800
O284        O  0.43648246  0.39695462  0.68453052    -0.75500
Zn285      Zn  0.47108044  0.35596401  0.63195263     1.55700
O286        O  0.02363227  0.43848647  0.62827866    -0.76900
Cd287      Cd  0.48200252  0.40573213  0.68099422     1.59700
Cd288      Cd  0.02005023  0.34354258  0.68165584     1.59600
O289        O  0.49760579  0.40029183  0.72349510    -0.76800
O290        O  0.50097825  0.37427379  0.65627673    -1.87400
Cd291      Cd  0.03232335  0.39279193  0.63169201     1.59900
O292        O  0.00389403  0.34984912  0.72389677    -0.76800
O293        O  0.02636855  0.37726455  0.58924544    -0.75500
C294        C  0.49742640  0.29288024  0.64160836     0.87100
C295        C  0.41948967  0.37826808  0.67130104     0.86700
O296        O  0.47608604  0.37119847  0.59044555    -0.74400
C297        C  0.00545272  0.45662521  0.64113906     0.87500
O298        O  0.48009840  0.31158079  0.62855044    -0.74500
C299        C  0.00062780  0.37520518  0.73712288     0.87700
C300        C  0.08357130  0.36992797  0.67212939     0.88000
O301        O  0.06565096  0.35225325  0.68547212    -0.76900
O302        O  0.48741987  0.30350408  0.91329062    -0.74400
C303        C  0.49935409  0.37559696  0.98713512     0.86600
O304        O  0.42546173  0.38842731  0.90036407    -0.75600
O305        O  0.01130071  0.44970684  0.91335959    -0.77000
O306        O  0.07338756  0.36337782  0.90096910    -0.76800
O307        O  0.02230421  0.31169166  0.87875470    -0.75500
Zn308      Zn  0.48107297  0.34557775  0.93149472     1.55700
O309        O  0.06349086  0.39804776  0.93558587    -0.76900
Cd310      Cd  0.03067496  0.35717619  0.88232722     1.59700
Cd311      Cd  0.46835274  0.39456904  0.88204295     1.59600
O312        O  0.02497237  0.37290817  0.83992603    -0.76800
O313        O  0.49922308  0.37562431  0.90730041    -1.87400
Cd314      Cd  0.01786231  0.40690290  0.93196116     1.59900
O315        O  0.47451808  0.37869845  0.83964901    -0.76800
O316        O  0.00222979  0.40108527  0.97429748    -0.75500
C317        C  0.41786594  0.37181580  0.92204067     0.87100
C318        C  0.50410787  0.29432134  0.89206764     0.86700
O319        O  0.49627871  0.35075431  0.97305361    -0.74400
C320        C  0.08159643  0.38003723  0.92246727     0.87500
O321        O  0.43660183  0.35435331  0.93490067    -0.74500
C322        C  0.99983526  0.37577775  0.82635390     0.87700
C323        C  0.99475688  0.45806684  0.89179382     0.88000
O324        O  0.47701332  0.44011196  0.87854051    -0.76900
O325        O  0.22624819  0.37014951  0.78505244    -0.74400
C326        C  0.16964441  0.37731653  0.70396002     0.86600
O327        O  0.26451896  0.29980889  0.71197493    -0.75600
O328        O  0.24825495  0.39928952  0.65199124    -0.77000
O329        O  0.27270303  0.43823656  0.74779580    -0.76800
O330        O  0.27648225  0.37668620  0.78610975    -0.75500
Zn331      Zn  0.22114927  0.35499962  0.74340032     1.55700
O332        O  0.23789853  0.44761211  0.71331776    -0.76900
Cd333      Cd  0.28210670  0.39259602  0.74385111     1.59700
Cd334      Cd  0.27043830  0.34281735  0.69386357     1.59600
O335        O  0.32493078  0.38655170  0.72495278    -0.76800
O336        O  0.25104887  0.37353005  0.71922503    -1.87400
Cd337      Cd  0.23219143  0.40480143  0.69438980     1.59900
O338        O  0.31595549  0.35194548  0.69017625    -0.76800
O339        O  0.18675198  0.39577472  0.69063258    -0.75500
C340        C  0.24790974  0.29194947  0.73358429     0.87100
C341        C  0.25107323  0.37340874  0.79904125     0.86700
O342        O  0.17905901  0.36090057  0.72522446    -0.74400
C343        C  0.25441048  0.45609774  0.73480690     0.87500
O344        O  0.23024441  0.31048884  0.74657366    -0.74500
C345        C  0.33358923  0.37009460  0.70334325     0.87700
C346        C  0.25144131  0.37416389  0.63833552     0.88000
O347        O  0.25454493  0.34884903  0.65154582    -0.76900
O348        O  0.27531552  0.37804209  0.53507217    -0.74400
C349        C  0.33174433  0.37047403  0.95419443     0.86600
O350        O  0.23728018  0.44835396  0.96207690    -0.75600
O351        O  0.25340487  0.34863430  0.90193185    -0.77000
O352        O  0.22834587  0.30997688  0.99754809    -0.76800
O353        O  0.22510235  0.37137001  0.53624402    -0.75500
Zn354      Zn  0.28032812  0.39326999  0.99353654     1.55700
O355        O  0.26340105  0.30050567  0.96325439    -0.76900
Cd356      Cd  0.21924067  0.35567441  0.99390571     1.59700
Cd357      Cd  0.23131797  0.40532202  0.94401982     1.59600
O358        O  0.17631008  0.36238170  0.97551042    -0.76800
O359        O  0.25041881  0.37462701  0.96935346    -1.87400
Cd360      Cd  0.26914079  0.34323004  0.94443651     1.59900
O361        O  0.18579536  0.39678069  0.94082418    -0.76800
O362        O  0.31453234  0.35202943  0.94093846    -0.75500
C363        C  0.25361120  0.45629134  0.98385938     0.87100
C364        C  0.25053582  0.37463921  0.54910479     0.86700
O365        O  0.32243523  0.38721319  0.97535475    -0.74400
C366        C  0.24674620  0.29208876  0.98463278     0.87500
O367        O  0.27116393  0.43781019  0.99696849    -0.74500
C368        C  0.16785704  0.37911136  0.95411327     0.87700
C369        C  0.25013964  0.37370581  0.88831815     0.88000
O370        O  0.24689805  0.39904125  0.90158027    -0.76900
O371        O  0.32295282  0.13734621  0.52578077    -0.74400
C372        C  0.25072966  0.12503555  0.95231435     0.86600
O373        O  0.23756867  0.19854873  0.53956595    -0.75600
O374        O  0.17684171  0.11246067  0.52622812    -0.77000
O375        O  0.26374279  0.05070389  0.53805227    -0.76800
O376        O  0.31511092  0.10216138  0.56006166    -0.75500
Zn377      Zn  0.28077320  0.14350611  0.50786222     1.55700
O378        O  0.22880925  0.06016647  0.50372807    -0.76900
Cd379      Cd  0.26969226  0.09348353  0.55683494     1.59700
Cd380      Cd  0.23185854  0.15554863  0.55761887     1.59600
O381        O  0.25410923  0.09896861  0.59941325    -0.76800
O382        O  0.25093630  0.12485426  0.53208726    -1.87400
Cd383      Cd  0.21970936  0.10587840  0.50756779     1.59900
O384        O  0.24759976  0.14937317  0.59998098    -0.76800
O385        O  0.22537467  0.12166544  0.96530577    -0.75500
C386        C  0.25388049  0.20647041  0.51777914     0.87100
C387        C  0.33231532  0.12054536  0.54678507     0.86700
O388        O  0.27558326  0.12840022  0.96622373    -0.74400
C389        C  0.24708626  0.04225309  0.51667197     0.87500
O390        O  0.27155268  0.18802475  0.50466849    -0.74500
C391        C  0.25081777  0.12404109  0.61313439     0.87700
C392        C  0.16843729  0.12910727  0.54779199     0.88000
O393        O  0.18637766  0.14682975  0.56107538    -0.76900
O394        O  0.32196155  0.13788005  0.77572701    -0.74400
C395        C  0.24978144  0.12393131  0.70240477     0.86600
O396        O  0.23682891  0.19866552  0.78893017    -0.75600
O397        O  0.17610998  0.11208033  0.77694656    -0.77000
O398        O  0.26365096  0.05086627  0.78853398    -0.76800
O399        O  0.31469334  0.10313121  0.81051604    -0.75500
Zn400      Zn  0.27980381  0.14320013  0.75763550     1.55700
O401        O  0.22822601  0.05979035  0.75453843    -0.76900
Cd402      Cd  0.26931692  0.09384404  0.80709372     1.59700
Cd403      Cd  0.23098599  0.15581673  0.80744033     1.59600
O404        O  0.25375371  0.09968260  0.84960910    -0.76800
O405        O  0.25011581  0.12485366  0.78218732    -1.87400
Cd406      Cd  0.21888244  0.10550413  0.75798282     1.59900
O407        O  0.24731753  0.15011149  0.84966942    -0.76800
O408        O  0.22441987  0.12078670  0.71546603    -0.75500
C409        C  0.25310026  0.20630005  0.76700271     0.87100
C410        C  0.33157175  0.12169693  0.79706800     0.86700
O411        O  0.27464970  0.12740914  0.71625928    -0.74400
C412        C  0.24682448  0.04212469  0.76737776     0.87500
O413        O  0.27053667  0.18761568  0.75392570    -0.74500
C414        C  0.25073998  0.12493954  0.86307054     0.87700
C415        C  0.16760374  0.12883873  0.79840604     0.88000
O416        O  0.18542383  0.14693852  0.81140464    -0.76900
C417        C  0.25123472  0.12507406  0.92090579    -0.09200
C418        C  0.25115770  0.12503485  0.89447923    -0.10800
C419        C  0.25033224  0.12371066  0.67098538    -0.09200
C420        C  0.25064770  0.12375050  0.64455450    -0.10800
C421        C  0.25152346  0.48674148  0.99502786    -0.09200
C422        C  0.24956176  0.01174458  0.50572765    -0.10800
C423        C  0.24942006  0.26168726  0.99567878    -0.09200
C424        C  0.25157499  0.23682183  0.50653257    -0.10800
C425        C  0.25018617  0.37342957  0.85689487    -0.09200
C426        C  0.25043141  0.37336148  0.83046138    -0.10800
C427        C  0.25146404  0.37437663  0.60692807    -0.09200
C428        C  0.25124194  0.37452363  0.58050532    -0.10800
C429        C  0.25174056  0.48657956  0.74583126    -0.09200
C430        C  0.24950949  0.01158604  0.75650541    -0.10800
C431        C  0.25120952  0.23664556  0.75565876    -0.09200
C432        C  0.24972904  0.26152721  0.74474098    -0.10800
C433        C  0.13721549  0.37782733  0.94367444    -0.09200
C434        C  0.11212133  0.37817001  0.93321062    -0.10800
C435        C  0.36240475  0.37271348  0.94388366    -0.09200
C436        C  0.38743464  0.37304315  0.93322330    -0.10800
C437        C  0.00006193  0.37568208  0.79494780    -0.09200
C438        C  0.00032206  0.37551142  0.76852657    -0.10800
C439        C  0.49963715  0.37487218  0.51854628    -0.09200
C440        C  0.50009857  0.37451922  0.54497188    -0.10800
C441        C  0.11404495  0.37221169  0.68303679    -0.09200
C442        C  0.13905765  0.37436392  0.69353381    -0.10800
C443        C  0.38894628  0.37516016  0.68178275    -0.09200
C444        C  0.36399224  0.37273827  0.69234933    -0.10800
C445        C  0.11204373  0.12482267  0.81978812    -0.09200
C446        C  0.13711765  0.12671301  0.80935160    -0.10800
C447        C  0.36207393  0.12513169  0.80752312    -0.09200
C448        C  0.38695779  0.12774043  0.81817797    -0.10800
C449        C  0.99644329  0.48860238  0.88112122    -0.09200
C450        C  0.49663558  0.01369045  0.87065471    -0.10800
C451        C  0.00186202  0.23855217  0.87111893    -0.09200
C452        C  0.50208253  0.26361905  0.88176126    -0.10800
C453        C  0.00122542  0.12640768  0.98289642    -0.09200
C454        C  0.00081451  0.12674616  0.95646885    -0.10800
C455        C  0.49947622  0.12591339  0.73291460    -0.09200
C456        C  0.49944229  0.12571082  0.70649367    -0.10800
C457        C  0.11284190  0.12766334  0.56911071    -0.09200
C458        C  0.13786810  0.12761652  0.55845419    -0.10800
C459        C  0.36305251  0.12258575  0.55686672    -0.09200
C460        C  0.38815187  0.12260153  0.56734259    -0.10800
C461        C  0.50394461  0.01230206  0.62003434    -0.09200
C462        C  0.00392281  0.48720287  0.63048388    -0.10800
C463        C  0.49863382  0.26239231  0.63052070    -0.09200
C464        C  0.99825692  0.23734045  0.61985457    -0.10800
O465        O  0.00438117  0.65041495  0.02846739    -0.74400
C466        C  0.99610771  0.70669024  0.10942985     0.86600
O467        O  0.07455549  0.61253823  0.10174390    -0.75600
O468        O  0.47464985  0.62834289  0.16139722    -0.77000
O469        O  0.43686887  0.60286310  0.06537422    -0.76800
O470        O  0.49840463  0.60009208  0.02706875    -0.75500
Zn471      Zn  0.01930991  0.65542705  0.07013837     1.55700
O472        O  0.42663184  0.63762162  0.09982633    -0.76900
Cd473      Cd  0.48250440  0.59411400  0.06929473     1.59700
Cd474      Cd  0.03151871  0.60646804  0.11964311     1.59600
O475        O  0.48914097  0.55124072  0.08778865    -0.76800
O476        O  0.00086705  0.62540494  0.09414884    -1.87400
Cd477      Cd  0.46919947  0.64391210  0.11885915     1.59900
O478        O  0.02293733  0.56092495  0.12303363    -0.76800
O479        O  0.47760723  0.68941017  0.12245983    -0.75500
C480        C  0.08235780  0.62906627  0.08008895     0.87100
C481        C  0.00136633  0.62561130  0.01430850     0.86700
O482        O  0.01302459  0.69745022  0.08840607    -0.74400
C483        C  0.41862361  0.62088647  0.07829957     0.87500
O484        O  0.06376706  0.64652262  0.06703199    -0.74500
C485        C  0.50548628  0.54290169  0.10950846     0.87700
C486        C  0.49972682  0.62547592  0.17508988     0.88000
O487        O  0.02509008  0.62241757  0.16192158    -0.76900
O488        O  0.02479034  0.62997014  0.41095994    -0.74400
C489        C  0.08136868  0.62220536  0.33009492     0.86600
O490        O  0.48644543  0.70036044  0.33837491    -0.75600
O491        O  0.00281013  0.60100887  0.27784108    -0.77000
O492        O  0.47735600  0.56252377  0.37328524    -0.76800
O493        O  0.47451791  0.62382120  0.41222715    -0.75500
Zn494      Zn  0.02985060  0.64503930  0.36937461     1.55700
O495        O  0.01202849  0.55248040  0.33875547    -0.76900
Cd496      Cd  0.46860701  0.60816151  0.36983734     1.59700
Cd497      Cd  0.48054631  0.65743615  0.31995268     1.59600
O498        O  0.42579212  0.61433438  0.35107469    -0.76800
O499        O  0.99985714  0.62670377  0.34516364    -1.87400
Cd500      Cd  0.01859741  0.59526235  0.32026322     1.59900
O501        O  0.43505949  0.64836459  0.31601997    -0.76800
O502        O  0.06419773  0.60372872  0.31679667    -0.75500
C503        C  0.00318566  0.70809781  0.35994510     0.87100
C504        C  0.00000804  0.62685854  0.42505358     0.86700
O505        O  0.07194814  0.63891482  0.35122762    -0.74400
C506        C  0.49521737  0.54431361  0.36012127     0.87500
O507        O  0.02086031  0.68949125  0.37270948    -0.74500
C508        C  0.41729487  0.63048319  0.32928459     0.87700
C509        C  0.49962595  0.62613897  0.26431761     0.88000
O510        O  0.49655602  0.65145599  0.27764880    -0.76900
O511        O  0.42901457  0.86168828  0.15013027    -0.74400
C512        C  0.50088399  0.87431758  0.07638525     0.86600
O513        O  0.01388721  0.80054709  0.16340903    -0.75600
O514        O  0.07514917  0.88620549  0.15039254    -0.77000
O515        O  0.48838763  0.94842223  0.16229793    -0.76800
O516        O  0.43648243  0.89695465  0.18453052    -0.75500
Zn517      Zn  0.47108041  0.85596403  0.13195264     1.55700
O518        O  0.02363222  0.93848650  0.12827866    -0.76900
Cd519      Cd  0.48200246  0.90573214  0.18099423     1.59700
Cd520      Cd  0.02005021  0.84354260  0.18165584     1.59600
O521        O  0.49760572  0.90029186  0.22349513    -0.76800
O522        O  0.50097823  0.87427382  0.15627674    -1.87400
Cd523      Cd  0.03232335  0.89279195  0.13169199     1.59900
O524        O  0.00389395  0.84984915  0.22389680    -0.76800
O525        O  0.02636858  0.87726457  0.08924544    -0.75500
C526        C  0.49742638  0.79288028  0.14160840     0.87100
C527        C  0.41948956  0.87826808  0.17130104     0.86700
O528        O  0.47608599  0.87119850  0.09044557    -0.74400
C529        C  0.00545273  0.95662510  0.14113906     0.87500
O530        O  0.48009838  0.81158084  0.12855044    -0.74500
C531        C  0.00062781  0.87520512  0.23712278     0.87700
C532        C  0.08357129  0.86992803  0.17212935     0.88000
O533        O  0.06565097  0.85225332  0.18547217    -0.76900
O534        O  0.48741985  0.80350407  0.41329061    -0.74400
C535        C  0.49935409  0.87559699  0.48713511     0.86600
O536        O  0.42546171  0.88842726  0.40036404    -0.75600
O537        O  0.01130069  0.94970682  0.41335959    -0.77000
O538        O  0.07338747  0.86337782  0.40096912    -0.76800
O539        O  0.02230414  0.81169162  0.37875470    -0.75500
Zn540      Zn  0.48107296  0.84557774  0.43149473     1.55700
O541        O  0.06349078  0.89804775  0.43558590    -0.76900
Cd542      Cd  0.03067491  0.85717617  0.38232723     1.59700
Cd543      Cd  0.46835274  0.89456901  0.38204298     1.59600
O544        O  0.02497228  0.87290811  0.33992601    -0.76800
O545        O  0.49922308  0.87562429  0.40730043    -1.87400
Cd546      Cd  0.01786225  0.90690289  0.43196115     1.59900
O547        O  0.47451815  0.87869847  0.33964899    -0.76800
O548        O  0.00222969  0.90108529  0.47429745    -0.75500
C549        C  0.41786594  0.87181571  0.42204069     0.87100
C550        C  0.50410793  0.79432135  0.39206765     0.86700
O551        O  0.49627867  0.85075433  0.47305364    -0.74400
C552        C  0.08159638  0.88003718  0.42246728     0.87500
O553        O  0.43660179  0.85435328  0.43490067    -0.74500
C554        C  0.99983521  0.87577771  0.32635400     0.87700
C555        C  0.99475680  0.95806680  0.39179380     0.88000
O556        O  0.47701324  0.94011195  0.37854057    -0.76900
O557        O  0.22624816  0.87014953  0.28505244    -0.74400
C558        C  0.16964443  0.87731656  0.20396001     0.86600
O559        O  0.26451896  0.79980895  0.21197489    -0.75600
O560        O  0.24825503  0.89928956  0.15199124    -0.77000
O561        O  0.27270306  0.93823658  0.24779583    -0.76800
O562        O  0.27648220  0.87668621  0.28610980    -0.75500
Zn563      Zn  0.22114925  0.85499963  0.24340032     1.55700
O564        O  0.23789853  0.94761206  0.21331779    -0.76900
Cd565      Cd  0.28210671  0.89259605  0.24385113     1.59700
Cd566      Cd  0.27043828  0.84281739  0.19386356     1.59600
O567        O  0.32493074  0.88655172  0.22495282    -0.76800
O568        O  0.25104886  0.87353007  0.21922505    -1.87400
Cd569      Cd  0.23219144  0.90480146  0.19438981     1.59900
O570        O  0.31595543  0.85194550  0.19017626    -0.76800
O571        O  0.18675198  0.89577473  0.19063254    -0.75500
C572        C  0.24790973  0.79194946  0.23358430     0.87100
C573        C  0.25107326  0.87340873  0.29904118     0.86700
O574        O  0.17905899  0.86090061  0.22522444    -0.74400
C575        C  0.25441049  0.95609783  0.23480696     0.87500
O576        O  0.23024442  0.81048887  0.24657363    -0.74500
C577        C  0.33358926  0.87009463  0.20334324     0.87700
C578        C  0.25144134  0.87416394  0.13833552     0.88000
O579        O  0.25454495  0.84884906  0.15154582    -0.76900
O580        O  0.27531555  0.87804204  0.03507214    -0.74400
C581        C  0.33174425  0.87047404  0.45419444     0.86600
O582        O  0.23728007  0.94835393  0.46207689    -0.75600
O583        O  0.25340478  0.84863427  0.40193181    -0.77000
O584        O  0.22834584  0.80997684  0.49754812    -0.76800
O585        O  0.22510238  0.87137009  0.03624401    -0.75500
Zn586      Zn  0.28032806  0.89327000  0.49353653     1.55700
O587        O  0.26340099  0.80050564  0.46325441    -0.76900
Cd588      Cd  0.21924064  0.85567438  0.49390573     1.59700
Cd589      Cd  0.23131790  0.90532195  0.44401980     1.59600
O590        O  0.17631001  0.86238162  0.47551047    -0.76800
O591        O  0.25041877  0.87462699  0.46935348    -1.87400
Cd592      Cd  0.26914073  0.84323004  0.44443651     1.59900
O593        O  0.18579531  0.89678054  0.44082416    -0.76800
O594        O  0.31453227  0.85202945  0.44093847    -0.75500
C595        C  0.25361112  0.95629133  0.48385935     0.87100
C596        C  0.25053579  0.87463923  0.04910477     0.86700
O597        O  0.32243517  0.88721319  0.47535476    -0.74400
C598        C  0.24674618  0.79208881  0.48463274     0.87500
O599        O  0.27116387  0.93781017  0.49696844    -0.74500
C600        C  0.16785695  0.87911128  0.45411325     0.87700
C601        C  0.25013958  0.87370571  0.38831821     0.88000
O602        O  0.24689799  0.89904120  0.40158024    -0.76900
O603        O  0.32295280  0.63734616  0.02578075    -0.74400
C604        C  0.25072969  0.62503560  0.45231438     0.86600
O605        O  0.23756866  0.69854875  0.03956592    -0.75600
O606        O  0.17684170  0.61246069  0.02622809    -0.77000
O607        O  0.26374276  0.55070396  0.03805226    -0.76800
O608        O  0.31511087  0.60216139  0.06006164    -0.75500
Zn609      Zn  0.28077315  0.64350606  0.00786217     1.55700
O610        O  0.22880919  0.56016646  0.00372807    -0.76900
Cd611      Cd  0.26969217  0.59348356  0.05683491     1.59700
Cd612      Cd  0.23185848  0.65554865  0.05761884     1.59600
O613        O  0.25410916  0.59896861  0.09941321    -0.76800
O614        O  0.25093622  0.62485427  0.03208723    -1.87400
Cd615      Cd  0.21970927  0.60587841  0.00756777     1.59900
O616        O  0.24759971  0.64937318  0.09998095    -0.76800
O617        O  0.22537467  0.62166544  0.46530578    -0.75500
C618        C  0.25388053  0.70647028  0.01777912     0.87100
C619        C  0.33231514  0.62054535  0.04678501     0.86700
O620        O  0.27558324  0.62840027  0.46622373    -0.74400
C621        C  0.24708618  0.54225314  0.01667194     0.87500
O622        O  0.27155261  0.68802476  0.00466844    -0.74500
C623        C  0.25081771  0.62404110  0.11313439     0.87700
C624        C  0.16843709  0.62910729  0.04779204     0.88000
O625        O  0.18637767  0.64682982  0.06107537    -0.76900
O626        O  0.32196158  0.63788007  0.27572701    -0.74400
C627        C  0.24978153  0.62393129  0.20240470     0.86600
O628        O  0.23682889  0.69866553  0.28893015    -0.75600
O629        O  0.17610996  0.61208036  0.27694659    -0.77000
O630        O  0.26365094  0.55086627  0.28853400    -0.76800
O631        O  0.31469336  0.60313121  0.31051601    -0.75500
Zn632      Zn  0.27980383  0.64320013  0.25763545     1.55700
O633        O  0.22822599  0.55979041  0.25453845    -0.76900
Cd634      Cd  0.26931692  0.59384405  0.30709372     1.59700
Cd635      Cd  0.23098602  0.65581676  0.30744029     1.59600
O636        O  0.25375375  0.59968265  0.34960911    -0.76800
O637        O  0.25011582  0.62485366  0.28218729    -1.87400
Cd638      Cd  0.21888245  0.60550413  0.25798280     1.59900
O639        O  0.24731753  0.65011153  0.34966942    -0.76800
O640        O  0.22441985  0.62078667  0.21546602    -0.75500
C641        C  0.25310035  0.70630008  0.26700254     0.87100
C642        C  0.33157173  0.62169695  0.29706795     0.86700
O643        O  0.27464969  0.62740912  0.21625923    -0.74400
C644        C  0.24682447  0.54212461  0.26737777     0.87500
O645        O  0.27053665  0.68761571  0.25392565    -0.74500
C646        C  0.25074003  0.62493959  0.36307054     0.87700
C647        C  0.16760389  0.62883877  0.29840595     0.88000
O648        O  0.18542380  0.64693857  0.31140460    -0.76900
C649        C  0.25123472  0.62507414  0.42090579    -0.09200
C650        C  0.25115777  0.62503491  0.39447925    -0.10800
C651        C  0.25033225  0.62371062  0.17098538    -0.09200
C652        C  0.25064768  0.62375051  0.14455442    -0.10800
C653        C  0.25152343  0.98674145  0.49502783    -0.09200
C654        C  0.24956178  0.51174459  0.00572766    -0.10800
C655        C  0.24942004  0.76168717  0.49567880    -0.09200
C656        C  0.25157501  0.73682198  0.00653250    -0.10800
C657        C  0.25018614  0.87342953  0.35689476    -0.09200
C658        C  0.25043138  0.87336142  0.33046148    -0.10800
C659        C  0.25146406  0.87437667  0.10692806    -0.09200
C660        C  0.25124197  0.87452367  0.08050532    -0.10800
C661        C  0.25174053  0.98657946  0.24583125    -0.09200
C662        C  0.24950941  0.51158614  0.25650545    -0.10800
C663        C  0.25120954  0.73664550  0.25565870    -0.09200
C664        C  0.24972905  0.76152729  0.24474092    -0.10800
C665        C  0.13721546  0.87782723  0.44367447    -0.09200
C666        C  0.11212122  0.87816995  0.43321064    -0.10800
C667        C  0.36240472  0.87271348  0.44388366    -0.09200
C668        C  0.38743458  0.87304310  0.43322330    -0.10800
C669        C  0.00006188  0.87568204  0.29494765    -0.09200
C670        C  0.00032202  0.87551140  0.26852671    -0.10800
C671        C  0.49963714  0.87487215  0.01854627    -0.09200
C672        C  0.50009854  0.87451923  0.04497191    -0.10800
C673        C  0.11404499  0.87221174  0.18303676    -0.09200
C674        C  0.13905761  0.87436396  0.19353378    -0.10800
C675        C  0.38894632  0.87516017  0.18178270    -0.09200
C676        C  0.36399212  0.87273827  0.19234938    -0.10800
C677        C  0.11204394  0.62482271  0.31978803    -0.09200
C678        C  0.13711745  0.62671304  0.30935165    -0.10800
C679        C  0.36207397  0.62513169  0.30752315    -0.09200
C680        C  0.38695772  0.62774044  0.31817797    -0.10800
C681        C  0.99644326  0.98860240  0.38112123    -0.09200
C682        C  0.49663554  0.51369040  0.37065475    -0.10800
C683        C  0.00186198  0.73855220  0.37111893    -0.09200
C684        C  0.50208258  0.76361899  0.38176125    -0.10800
C685        C  0.00122541  0.62640772  0.48289641    -0.09200
C686        C  0.00081450  0.62674619  0.45646882    -0.10800
C687        C  0.49947624  0.62591327  0.23291461    -0.09200
C688        C  0.49944231  0.62571072  0.20649369    -0.10800
C689        C  0.11284166  0.62766335  0.06911083    -0.09200
C690        C  0.13786828  0.62761653  0.05845415    -0.10800
C691        C  0.36305258  0.62258575  0.05686679    -0.09200
C692        C  0.38815165  0.62260152  0.06734255    -0.10800
C693        C  0.50394451  0.51230201  0.12003440    -0.09200
C694        C  0.00392280  0.98720298  0.13048384    -0.10800
C695        C  0.49863377  0.76239232  0.13052073    -0.09200
C696        C  0.99825704  0.73734049  0.11985460    -0.10800
O697        O  0.00438119  0.65041497  0.52846737    -0.74400
C698        C  0.99610774  0.70669021  0.60942980     0.86600
O699        O  0.07455553  0.61253820  0.60174389    -0.75600
O700        O  0.47464981  0.62834283  0.66139720    -0.77000
O701        O  0.43686890  0.60286311  0.56537421    -0.76800
O702        O  0.49840467  0.60009209  0.52706874    -0.75500
Zn703      Zn  0.01930994  0.65542702  0.57013835     1.55700
O704        O  0.42663187  0.63762163  0.59982633    -0.76900
Cd705      Cd  0.48250443  0.59411398  0.56929471     1.59700
Cd706      Cd  0.03151873  0.60646802  0.61964307     1.59600
O707        O  0.48914098  0.55124074  0.58778862    -0.76800
O708        O  0.00086705  0.62540491  0.59414881    -1.87400
Cd709      Cd  0.46919948  0.64391207  0.61885914     1.59900
O710        O  0.02293736  0.56092495  0.62303356    -0.76800
O711        O  0.47760728  0.68941012  0.62245986    -0.75500
C712        C  0.08235783  0.62906629  0.58008891     0.87100
C713        C  0.00136629  0.62561123  0.51430847     0.86700
O714        O  0.01302457  0.69745020  0.58840606    -0.74400
C715        C  0.41862364  0.62088645  0.57829952     0.87500
O716        O  0.06376710  0.64652259  0.56703198    -0.74500
C717        C  0.50548632  0.54290160  0.60950846     0.87700
C718        C  0.49972685  0.62547592  0.67508985     0.88000
O719        O  0.02509012  0.62241756  0.66192154    -0.76900
O720        O  0.02479033  0.62997024  0.91095995    -0.74400
C721        C  0.08136880  0.62220538  0.83009489     0.86600
O722        O  0.48644539  0.70036044  0.83837493    -0.75600
O723        O  0.00281008  0.60100890  0.77784107    -0.77000
O724        O  0.47735597  0.56252370  0.87328521    -0.76800
O725        O  0.47451788  0.62382115  0.91222718    -0.75500
Zn726      Zn  0.02985060  0.64503934  0.86937462     1.55700
O727        O  0.01202846  0.55248036  0.83875546    -0.76900
Cd728      Cd  0.46860699  0.60816149  0.86983736     1.59700
Cd729      Cd  0.48054630  0.65743617  0.81995268     1.59600
O730        O  0.42579209  0.61433441  0.85107469    -0.76800
O731        O  0.99985713  0.62670381  0.84516365    -1.87400
Cd732      Cd  0.01859737  0.59526240  0.82026318     1.59900
O733        O  0.43505953  0.64836458  0.81601995    -0.76800
O734        O  0.06419762  0.60372875  0.81679663    -0.75500
C735        C  0.00318566  0.70809786  0.85994512     0.87100
C736        C  0.00000799  0.62685856  0.92505360     0.86700
O737        O  0.07194810  0.63891480  0.85122768    -0.74400
C738        C  0.49521732  0.54431370  0.86012124     0.87500
O739        O  0.02086037  0.68949126  0.87270946    -0.74500
C740        C  0.41729483  0.63048315  0.82928461     0.87700
C741        C  0.49962598  0.62613915  0.76431760     0.88000
O742        O  0.49655606  0.65145601  0.77764879    -0.76900
O743        O  0.42901460  0.86168824  0.65013028    -0.74400
C744        C  0.50088399  0.87431757  0.57638525     0.86600
O745        O  0.01388714  0.80054705  0.66340902    -0.75600
O746        O  0.07514914  0.88620546  0.65039255    -0.77000
O747        O  0.48838765  0.94842218  0.66229801    -0.76800
O748        O  0.43648247  0.89695463  0.68453051    -0.75500
Zn749      Zn  0.47108043  0.85596398  0.63195261     1.55700
O750        O  0.02363223  0.93848644  0.62827864    -0.76900
Cd751      Cd  0.48200247  0.90573209  0.68099422     1.59700
Cd752      Cd  0.02005021  0.84354254  0.68165583     1.59600
O753        O  0.49760572  0.90029178  0.72349511    -0.76800
O754        O  0.50097822  0.87427376  0.65627674    -1.87400
Cd755      Cd  0.03232333  0.89279190  0.63169200     1.59900
O756        O  0.00389402  0.84984906  0.72389676    -0.76800
O757        O  0.02636851  0.87726451  0.58924543    -0.75500
C758        C  0.49742642  0.79288023  0.64160838     0.87100
C759        C  0.41948958  0.87826798  0.67130099     0.86700
O760        O  0.47608598  0.87119851  0.59044557    -0.74400
C761        C  0.00545272  0.95662518  0.64113907     0.87500
O762        O  0.48009842  0.81158079  0.62855040    -0.74500
C763        C  0.00062782  0.87520513  0.73712288     0.87700
C764        C  0.08357128  0.86992794  0.67212934     0.88000
O765        O  0.06565099  0.85225321  0.68547212    -0.76900
O766        O  0.48741987  0.80350407  0.91329060    -0.74400
C767        C  0.49935412  0.87559698  0.98713511     0.86600
O768        O  0.42546174  0.88842727  0.90036405    -0.75600
O769        O  0.01130070  0.94970675  0.91335962    -0.77000
O770        O  0.07338752  0.86337779  0.90096910    -0.76800
O771        O  0.02230416  0.81169163  0.87875471    -0.75500
Zn772      Zn  0.48107297  0.84557774  0.93149471     1.55700
O773        O  0.06349081  0.89804774  0.93558586    -0.76900
Cd774      Cd  0.03067494  0.85717615  0.88232723     1.59700
Cd775      Cd  0.46835278  0.89456901  0.88204295     1.59600
O776        O  0.02497234  0.87290812  0.83992604    -0.76800
O777        O  0.49922312  0.87562428  0.90730042    -1.87400
Cd778      Cd  0.01786226  0.90690288  0.93196114     1.59900
O779        O  0.47451817  0.87869843  0.83964902    -0.76800
O780        O  0.00222975  0.90108525  0.97429745    -0.75500
C781        C  0.41786594  0.87181575  0.92204064     0.87100
C782        C  0.50410795  0.79432132  0.89206761     0.86700
O783        O  0.49627868  0.85075429  0.97305362    -0.74400
C784        C  0.08159643  0.88003718  0.92246727     0.87500
O785        O  0.43660184  0.85435328  0.93490065    -0.74500
C786        C  0.99983526  0.87577770  0.82635391     0.87700
C787        C  0.99475680  0.95806695  0.89179371     0.88000
O788        O  0.47701330  0.94011189  0.87854054    -0.76900
O789        O  0.22624819  0.87014952  0.78505243    -0.74400
C790        C  0.16964446  0.87731653  0.70396002     0.86600
O791        O  0.26451897  0.79980892  0.71197490    -0.75600
O792        O  0.24825498  0.89928963  0.65199126    -0.77000
O793        O  0.27270310  0.93823662  0.74779580    -0.76800
O794        O  0.27648224  0.87668619  0.78610978    -0.75500
Zn795      Zn  0.22114930  0.85499962  0.74340031     1.55700
O796        O  0.23789859  0.94761212  0.71331779    -0.76900
Cd797      Cd  0.28210675  0.89259602  0.74385112     1.59700
Cd798      Cd  0.27043829  0.84281738  0.69386357     1.59600
O799        O  0.32493079  0.88655166  0.72495282    -0.76800
O800        O  0.25104888  0.87353007  0.71922504    -1.87400
Cd801      Cd  0.23219145  0.90480145  0.69438979     1.59900
O802        O  0.31595544  0.85194548  0.69017624    -0.76800
O803        O  0.18675197  0.89577474  0.69063257    -0.75500
C804        C  0.24790974  0.79194949  0.73358429     0.87100
C805        C  0.25107328  0.87340872  0.79904125     0.86700
O806        O  0.17905903  0.86090056  0.72522441    -0.74400
C807        C  0.25441054  0.95609770  0.73480689     0.87500
O808        O  0.23024445  0.81048885  0.74657366    -0.74500
C809        C  0.33358930  0.87009458  0.70334323     0.87700
C810        C  0.25144134  0.87416390  0.63833552     0.88000
O811        O  0.25454494  0.84884914  0.65154579    -0.76900
O812        O  0.27531547  0.87804204  0.53507215    -0.74400
C813        C  0.33174430  0.87047402  0.95419438     0.86600
O814        O  0.23728013  0.94835391  0.96207688    -0.75600
O815        O  0.25340482  0.84863429  0.90193184    -0.77000
O816        O  0.22834591  0.80997687  0.99754811    -0.76800
O817        O  0.22510230  0.87137006  0.53624401    -0.75500
Zn818      Zn  0.28032810  0.89327002  0.99353653     1.55700
O819        O  0.26340103  0.80050566  0.96325439    -0.76900
Cd820      Cd  0.21924066  0.85567441  0.99390571     1.59700
Cd821      Cd  0.23131794  0.90532201  0.94401982     1.59600
O822        O  0.17631005  0.86238166  0.97551043    -0.76800
O823        O  0.25041879  0.87462702  0.96935347    -1.87400
Cd824      Cd  0.26914076  0.84323007  0.94443650     1.59900
O825        O  0.18579534  0.89678066  0.94082419    -0.76800
O826        O  0.31453233  0.85202947  0.94093847    -0.75500
C827        C  0.25361117  0.95629142  0.98385939     0.87100
C828        C  0.25053585  0.87463921  0.54910476     0.86700
O829        O  0.32243520  0.88721323  0.97535476    -0.74400
C830        C  0.24674622  0.79208886  0.98463273     0.87500
O831        O  0.27116393  0.93781018  0.99696845    -0.74500
C832        C  0.16785697  0.87911134  0.95411325     0.87700
C833        C  0.25013960  0.87370582  0.88831815     0.88000
O834        O  0.24689801  0.89904123  0.90158028    -0.76900
O835        O  0.32295283  0.63734616  0.52578081    -0.74400
C836        C  0.25072959  0.62503551  0.95231436     0.86600
O837        O  0.23756862  0.69854873  0.53956590    -0.75600
O838        O  0.17684175  0.61246070  0.52622806    -0.77000
O839        O  0.26374275  0.55070394  0.53805233    -0.76800
O840        O  0.31511090  0.60216135  0.56006167    -0.75500
Zn841      Zn  0.28077319  0.64350608  0.50786224     1.55700
O842        O  0.22880925  0.56016651  0.50372806    -0.76900
Cd843      Cd  0.26969220  0.59348354  0.55683497     1.59700
Cd844      Cd  0.23185850  0.65554864  0.55761885     1.59600
O845        O  0.25410920  0.59896861  0.59941324    -0.76800
O846        O  0.25093626  0.62485425  0.53208726    -1.87400
Cd847      Cd  0.21970933  0.60587844  0.50756776     1.59900
O848        O  0.24759975  0.64937317  0.59998099    -0.76800
O849        O  0.22537460  0.62166541  0.96530577    -0.75500
C850        C  0.25388050  0.70647030  0.51777915     0.87100
C851        C  0.33231520  0.62054531  0.54678505     0.86700
O852        O  0.27558319  0.62840020  0.96622373    -0.74400
C853        C  0.24708618  0.54225304  0.51667190     0.87500
O854        O  0.27155268  0.68802476  0.50466851    -0.74500
C855        C  0.25081773  0.62404122  0.61313439     0.87700
C856        C  0.16843713  0.62910725  0.54779204     0.88000
O857        O  0.18637771  0.64682975  0.56107540    -0.76900
O858        O  0.32196155  0.63788003  0.77572698    -0.74400
C859        C  0.24978142  0.62393132  0.70240476     0.86600
O860        O  0.23682891  0.69866553  0.78893016    -0.75600
O861        O  0.17610997  0.61208031  0.77694656    -0.77000
O862        O  0.26365099  0.55086629  0.78853394    -0.76800
O863        O  0.31469330  0.60313127  0.81051607    -0.75500
Zn864      Zn  0.27980379  0.64320011  0.75763547     1.55700
O865        O  0.22822599  0.55979038  0.75453844    -0.76900
Cd866      Cd  0.26931690  0.59384403  0.80709372     1.59700
Cd867      Cd  0.23098599  0.65581672  0.80744033     1.59600
O868        O  0.25375364  0.59968264  0.84960909    -0.76800
O869        O  0.25011579  0.62485365  0.78218731    -1.87400
Cd870      Cd  0.21888241  0.60550410  0.75798282     1.59900
O871        O  0.24731755  0.65011154  0.84966941    -0.76800
O872        O  0.22441984  0.62078666  0.71546601    -0.75500
C873        C  0.25310032  0.70630005  0.76700266     0.87100
C874        C  0.33157172  0.62169693  0.79706802     0.86700
O875        O  0.27464967  0.62740912  0.71625928    -0.74400
C876        C  0.24682450  0.54212463  0.76737774     0.87500
O877        O  0.27053667  0.68761570  0.75392570    -0.74500
C878        C  0.25073996  0.62493944  0.86307054     0.87700
C879        C  0.16760373  0.62883869  0.79840606     0.88000
O880        O  0.18542382  0.64693848  0.81140466    -0.76900
C881        C  0.25123466  0.62507400  0.92090579    -0.09200
C882        C  0.25115765  0.62503483  0.89447922    -0.10800
C883        C  0.25033221  0.62371072  0.67098537    -0.09200
C884        C  0.25064766  0.62375055  0.64455449    -0.10800
C885        C  0.25152343  0.98674137  0.99502779    -0.09200
C886        C  0.24956174  0.51174474  0.50572769    -0.10800
C887        C  0.24942008  0.76168717  0.99567880    -0.09200
C888        C  0.25157497  0.73682192  0.50653251    -0.10800
C889        C  0.25018615  0.87342957  0.85689486    -0.09200
C890        C  0.25043141  0.87336146  0.83046139    -0.10800
C891        C  0.25146407  0.87437672  0.60692806    -0.09200
C892        C  0.25124194  0.87452365  0.58050532    -0.10800
C893        C  0.25174055  0.98657964  0.74583131    -0.09200
C894        C  0.24950945  0.51158612  0.75650540    -0.10800
C895        C  0.25120955  0.73664557  0.75565872    -0.09200
C896        C  0.24972907  0.76152722  0.74474096    -0.10800
C897        C  0.13721551  0.87782731  0.94367446    -0.09200
C898        C  0.11212125  0.87816997  0.93321061    -0.10800
C899        C  0.36240472  0.87271351  0.94388363    -0.09200
C900        C  0.38743462  0.87304310  0.93322325    -0.10800
C901        C  0.00006192  0.87568203  0.79494780    -0.09200
C902        C  0.00032207  0.87551137  0.76852657    -0.10800
C903        C  0.49963713  0.87487219  0.51854628    -0.09200
C904        C  0.50009853  0.87451926  0.54497191    -0.10800
C905        C  0.11404502  0.87221166  0.68303676    -0.09200
C906        C  0.13905761  0.87436389  0.69353376    -0.10800
C907        C  0.38894636  0.87516012  0.68178269    -0.09200
C908        C  0.36399215  0.87273821  0.69234936    -0.10800
C909        C  0.11204372  0.62482265  0.81978813    -0.09200
C910        C  0.13711764  0.62671297  0.80935162    -0.10800
C911        C  0.36207391  0.62513167  0.80752314    -0.09200
C912        C  0.38695776  0.62774046  0.81817799    -0.10800
C913        C  0.99644326  0.98860216  0.88112130    -0.09200
C914        C  0.49663555  0.51369025  0.87065479    -0.10800
C915        C  0.00186198  0.73855216  0.87111892    -0.09200
C916        C  0.50208258  0.76361905  0.88176126    -0.10800
C917        C  0.00122542  0.62640775  0.98289642    -0.09200
C918        C  0.00081450  0.62674623  0.95646886    -0.10800
C919        C  0.49947627  0.62591337  0.73291459    -0.09200
C920        C  0.49944230  0.62571080  0.70649368    -0.10800
C921        C  0.11284170  0.62766334  0.56911082    -0.09200
C922        C  0.13786832  0.62761649  0.55845412    -0.10800
C923        C  0.36305259  0.62258570  0.55686677    -0.09200
C924        C  0.38815172  0.62260153  0.56734254    -0.10800
C925        C  0.50394455  0.51230210  0.62003432    -0.09200
C926        C  0.00392282  0.98720286  0.63048390    -0.10800
C927        C  0.49863381  0.76239227  0.63052070    -0.09200
C928        C  0.99825697  0.73734046  0.61985457    -0.10800
O929        O  0.50438114  0.15041493  0.02846739    -0.74400
C930        C  0.49610768  0.20669019  0.10942987     0.86600
O931        O  0.57455551  0.11253822  0.10174389    -0.75600
O932        O  0.97464984  0.12834277  0.16139720    -0.77000
O933        O  0.93686886  0.10286309  0.06537421    -0.76800
O934        O  0.99840458  0.10009205  0.02706875    -0.75500
Zn935      Zn  0.51930990  0.15542703  0.07013836     1.55700
O936        O  0.92663188  0.13762164  0.09982634    -0.76900
Cd937      Cd  0.98250436  0.09411397  0.06929474     1.59700
Cd938      Cd  0.53151873  0.10646804  0.11964309     1.59600
O939        O  0.98914091  0.05124071  0.08778867    -0.76800
O940        O  0.50086704  0.12540493  0.09414883    -1.87400
Cd941      Cd  0.96919951  0.14391207  0.11885914     1.59900
O942        O  0.52293738  0.06092497  0.12303364    -0.76800
O943        O  0.97760731  0.18941007  0.12245990    -0.75500
C944        C  0.58235777  0.12906631  0.08008892     0.87100
C945        C  0.50136630  0.12561121  0.01430848     0.86700
O946        O  0.51302451  0.19745020  0.08840606    -0.74400
C947        C  0.91862351  0.12088649  0.07829954     0.87500
O948        O  0.56376705  0.14652259  0.06703197    -0.74500
C949        C  0.00548627  0.04290166  0.10950842     0.87700
C950        C  0.99972684  0.12547584  0.17508987     0.88000
O951        O  0.52509011  0.12241762  0.16192157    -0.76900
O952        O  0.52479030  0.12997018  0.41095996    -0.74400
C953        C  0.58136869  0.12220537  0.33009494     0.86600
O954        O  0.98644547  0.20036041  0.33837490    -0.75600
O955        O  0.50281016  0.10100888  0.27784106    -0.77000
O956        O  0.97735604  0.06252369  0.37328526    -0.76800
O957        O  0.97451791  0.12382117  0.41222719    -0.75500
Zn958      Zn  0.52985058  0.14503930  0.36937461     1.55700
O959        O  0.51202844  0.05248032  0.33875549    -0.76900
Cd960      Cd  0.96860703  0.10816147  0.36983735     1.59700
Cd961      Cd  0.98054637  0.15743613  0.31995268     1.59600
O962        O  0.92579208  0.11433437  0.35107465    -0.76800
O963        O  0.49985710  0.12670376  0.34516365    -1.87400
Cd964      Cd  0.51859739  0.09526235  0.32026321     1.59900
O965        O  0.93505952  0.14836453  0.31601995    -0.76800
O966        O  0.56419770  0.10372872  0.31679669    -0.75500
C967        C  0.50318568  0.20809782  0.35994514     0.87100
C968        C  0.50000807  0.12685855  0.42505359     0.86700
O969        O  0.57194812  0.13891485  0.35122763    -0.74400
C970        C  0.99521739  0.04431371  0.36012123     0.87500
O971        O  0.52086029  0.18949124  0.37270945    -0.74500
C972        C  0.91729502  0.13048317  0.32928461     0.87700
C973        C  0.99962597  0.12613897  0.26431760     0.88000
O974        O  0.99655610  0.15145599  0.27764881    -0.76900
O975        O  0.92901450  0.36168833  0.15013028    -0.74400
C976        C  0.00088403  0.37431755  0.07638524     0.86600
O977        O  0.51388720  0.30054706  0.16340902    -0.75600
O978        O  0.57514917  0.38620553  0.15039253    -0.77000
O979        O  0.98838769  0.44842221  0.16229798    -0.76800
O980        O  0.93648243  0.39695462  0.18453054    -0.75500
Zn981      Zn  0.97108040  0.35596405  0.13195262     1.55700
O982        O  0.52363218  0.43848653  0.12827865    -0.76900
Cd983      Cd  0.98200251  0.40573212  0.18099423     1.59700
Cd984      Cd  0.52005025  0.34354258  0.18165583     1.59600
O985        O  0.99760577  0.40029183  0.22349515    -0.76800
O986        O  0.00097824  0.37427380  0.15627674    -1.87400
Cd987      Cd  0.53232332  0.39279195  0.13169197     1.59900
O988        O  0.50389405  0.34984914  0.22389681    -0.76800
O989        O  0.52636854  0.37726452  0.08924544    -0.75500
C990        C  0.99742634  0.29288030  0.14160837     0.87100
C991        C  0.91948973  0.37826812  0.17130102     0.86700
O992        O  0.97608598  0.37119850  0.09044558    -0.74400
C993        C  0.50545273  0.45662513  0.14113904     0.87500
O994        O  0.98009836  0.31158079  0.12855043    -0.74500
C995        C  0.50062784  0.37520508  0.23712280     0.87700
C996        C  0.58357129  0.36992805  0.17212925     0.88000
O997        O  0.56565098  0.35225328  0.18547209    -0.76900
O998        O  0.98741981  0.30350403  0.41329063    -0.74400
C999        C  0.99935412  0.37559694  0.48713510     0.86600
O1000       O  0.92546173  0.38842731  0.40036404    -0.75600
O1001       O  0.51130073  0.44970677  0.41335959    -0.77000
O1002       O  0.57338752  0.36337777  0.40096918    -0.76800
O1003       O  0.52230417  0.31169158  0.37875471    -0.75500
Zn1004     Zn  0.98107296  0.34557772  0.43149471     1.55700
O1005       O  0.56349083  0.39804777  0.43558588    -0.76900
Cd1006     Cd  0.53067493  0.35717612  0.38232727     1.59700
Cd1007     Cd  0.96835276  0.39456904  0.38204297     1.59600
O1008       O  0.52497227  0.37290804  0.33992600    -0.76800
O1009       O  0.99922309  0.37562429  0.40730042    -1.87400
Cd1010     Cd  0.51786229  0.40690289  0.43196114     1.59900
O1011       O  0.97451816  0.37869848  0.33964900    -0.76800
O1012       O  0.50222974  0.40108530  0.47429743    -0.75500
C1013       C  0.91786591  0.37181572  0.42204071     0.87100
C1014       C  0.00410792  0.29432126  0.39206762     0.86700
O1015       O  0.99627869  0.35075432  0.47305363    -0.74400
C1016       C  0.58159638  0.38003714  0.42246726     0.87500
O1017       O  0.93660182  0.35435330  0.43490065    -0.74500
C1018       C  0.49983530  0.37577771  0.32635402     0.87700
C1019       C  0.49475683  0.45806694  0.39179380     0.88000
O1020       O  0.97701325  0.44011189  0.37854054    -0.76900
O1021       O  0.72624817  0.37014948  0.28505246    -0.74400
C1022       C  0.66964443  0.37731653  0.20396005     0.86600
O1023       O  0.76451897  0.29980891  0.21197493    -0.75600
O1024       O  0.74825493  0.39928953  0.15199127    -0.77000
O1025       O  0.77270301  0.43823660  0.24779582    -0.76800
O1026       O  0.77648222  0.37668622  0.28610977    -0.75500
Zn1027     Zn  0.72114922  0.35499960  0.24340031     1.55700
O1028       O  0.73789854  0.44761209  0.21331774    -0.76900
Cd1029     Cd  0.78210668  0.39259605  0.24385112     1.59700
Cd1030     Cd  0.77043830  0.34281738  0.19386360     1.59600
O1031       O  0.82493078  0.38655174  0.22495279    -0.76800
O1032       O  0.75104882  0.37353006  0.21922505    -1.87400
Cd1033     Cd  0.73219142  0.40480144  0.19438981     1.59900
O1034       O  0.81595552  0.35194549  0.19017630    -0.76800
O1035       O  0.68675198  0.39577477  0.19063259    -0.75500
C1036       C  0.74790969  0.29194954  0.23358427     0.87100
C1037       C  0.75107324  0.37340869  0.29904118     0.86700
O1038       O  0.67905896  0.36090058  0.22522439    -0.74400
C1039       C  0.75441052  0.45609777  0.23480693     0.87500
O1040       O  0.73024438  0.31048883  0.24657360    -0.74500
C1041       C  0.83358913  0.37009465  0.20334332     0.87700
C1042       C  0.75144135  0.37416381  0.13833552     0.88000
O1043       O  0.75454499  0.34884905  0.15154581    -0.76900
O1044       O  0.77531556  0.37804198  0.03507216    -0.74400
C1045       C  0.83174435  0.37047402  0.45419441     0.86600
O1046       O  0.73728015  0.44835394  0.46207686    -0.75600
O1047       O  0.75340486  0.34863430  0.40193179    -0.77000
O1048       O  0.72834589  0.30997689  0.49754807    -0.76800
O1049       O  0.72510236  0.37137010  0.03624401    -0.75500
Zn1050     Zn  0.78032811  0.39327002  0.49353656     1.55700
O1051       O  0.76340108  0.30050570  0.46325437    -0.76900
Cd1052     Cd  0.71924066  0.35567442  0.49390570     1.59700
Cd1053     Cd  0.73131798  0.40532199  0.44401978     1.59600
O1054       O  0.67631006  0.36238166  0.47551043    -0.76800
O1055       O  0.75041880  0.37462703  0.46935348    -1.87400
Cd1056     Cd  0.76914078  0.34323006  0.44443652     1.59900
O1057       O  0.68579536  0.39678059  0.44082414    -0.76800
O1058       O  0.81453234  0.35202949  0.44093848    -0.75500
C1059       C  0.75361118  0.45629147  0.48385935     0.87100
C1060       C  0.75053588  0.37463917  0.04910478     0.86700
O1061       O  0.82243523  0.38721320  0.47535484    -0.74400
C1062       C  0.74674619  0.29208876  0.48463279     0.87500
O1063       O  0.77116394  0.43781019  0.49696845    -0.74500
C1064       C  0.66785707  0.37911132  0.45411322     0.87700
C1065       C  0.75013967  0.37370573  0.38831819     0.88000
O1066       O  0.74689810  0.39904123  0.40158024    -0.76900
O1067       O  0.82295273  0.13734618  0.02578078    -0.74400
C1068       C  0.75072966  0.12503559  0.45231436     0.86600
O1069       O  0.73756866  0.19854870  0.03956597    -0.75600
O1070       O  0.67684169  0.11246069  0.02622805    -0.77000
O1071       O  0.76374269  0.05070392  0.03805224    -0.76800
O1072       O  0.81511085  0.10216130  0.06006159    -0.75500
Zn1073     Zn  0.78077312  0.14350604  0.00786219     1.55700
O1074       O  0.72880911  0.06016648  0.00372806    -0.76900
Cd1075     Cd  0.76969217  0.09348350  0.05683492     1.59700
Cd1076     Cd  0.73185850  0.15554860  0.05761885     1.59600
O1077       O  0.75410918  0.09896855  0.09941322    -0.76800
O1078       O  0.75093621  0.12485422  0.03208723    -1.87400
Cd1079     Cd  0.71970925  0.10587840  0.00756775     1.59900
O1080       O  0.74759973  0.14937312  0.09998097    -0.76800
O1081       O  0.72537460  0.12166537  0.46530575    -0.75500
C1082       C  0.75388050  0.20647033  0.01777909     0.87100
C1083       C  0.83231521  0.12054529  0.04678505     0.86700
O1084       O  0.77558316  0.12840027  0.46622373    -0.74400
C1085       C  0.74708613  0.04225303  0.01667192     0.87500
O1086       O  0.77155257  0.18802471  0.00466842    -0.74500
C1087       C  0.75081773  0.12404101  0.11313440     0.87700
C1088       C  0.66843711  0.12910734  0.04779206     0.88000
O1089       O  0.68637767  0.14682976  0.06107537    -0.76900
O1090       O  0.82196159  0.13788012  0.27572703    -0.74400
C1091       C  0.74978145  0.12393129  0.20240472     0.86600
O1092       O  0.73682883  0.19866555  0.28893013    -0.75600
O1093       O  0.67610993  0.11208035  0.27694656    -0.77000
O1094       O  0.76365100  0.05086633  0.28853400    -0.76800
O1095       O  0.81469340  0.10313127  0.31051600    -0.75500
Zn1096     Zn  0.77980380  0.14320014  0.25763546     1.55700
O1097       O  0.72822599  0.05979041  0.25453846    -0.76900
Cd1098     Cd  0.76931694  0.09384406  0.30709370     1.59700
Cd1099     Cd  0.73098599  0.15581676  0.30744030     1.59600
O1100       O  0.75375375  0.09968267  0.34960909    -0.76800
O1101       O  0.75011582  0.12485367  0.28218730    -1.87400
Cd1102     Cd  0.71888241  0.10550416  0.25798282     1.59900
O1103       O  0.74731754  0.15011156  0.34966943    -0.76800
O1104       O  0.72441985  0.12078670  0.21546602    -0.75500
C1105       C  0.75310027  0.20629998  0.26700255     0.87100
C1106       C  0.83157161  0.12169697  0.29706790     0.86700
O1107       O  0.77464969  0.12740909  0.21625926    -0.74400
C1108       C  0.74682445  0.04212458  0.26737770     0.87500
O1109       O  0.77053657  0.18761572  0.25392565    -0.74500
C1110       C  0.75074002  0.12493958  0.36307054     0.87700
C1111       C  0.66760384  0.12883880  0.29840602     0.88000
O1112       O  0.68542376  0.14693850  0.31140464    -0.76900
C1113       C  0.75123469  0.12507411  0.42090578    -0.09200
C1114       C  0.75115773  0.12503490  0.39447924    -0.10800
C1115       C  0.75033225  0.12371061  0.17098538    -0.09200
C1116       C  0.75064766  0.12375044  0.14455444    -0.10800
C1117       C  0.75152348  0.48674138  0.49502776    -0.09200
C1118       C  0.74956169  0.01174468  0.00572766    -0.10800
C1119       C  0.74942007  0.26168732  0.49567874    -0.09200
C1120       C  0.75157495  0.23682182  0.00653255    -0.10800
C1121       C  0.75018620  0.37342955  0.35689476    -0.09200
C1122       C  0.75043143  0.37336139  0.33046146    -0.10800
C1123       C  0.75146409  0.37437662  0.10692808    -0.09200
C1124       C  0.75124201  0.37452355  0.08050531    -0.10800
C1125       C  0.75174053  0.48657955  0.24583125    -0.09200
C1126       C  0.74950944  0.01158625  0.25650547    -0.10800
C1127       C  0.75120944  0.23664560  0.25565862    -0.09200
C1128       C  0.74972899  0.26152716  0.24474095    -0.10800
C1129       C  0.63721547  0.37782725  0.44367440    -0.09200
C1130       C  0.61212133  0.37816995  0.43321067    -0.10800
C1131       C  0.86240469  0.37271351  0.44388368    -0.09200
C1132       C  0.88743468  0.37304313  0.43322328    -0.10800
C1133       C  0.50006191  0.37568204  0.29494767    -0.09200
C1134       C  0.50032207  0.37551139  0.26852672    -0.10800
C1135       C  0.99963716  0.37487213  0.01854627    -0.09200
C1136       C  0.00009854  0.37451921  0.04497193    -0.10800
C1137       C  0.61404502  0.37221173  0.18303672    -0.09200
C1138       C  0.63905758  0.37436396  0.19353373    -0.10800
C1139       C  0.88894613  0.37516020  0.18178283    -0.09200
C1140       C  0.86399235  0.37273833  0.19234930    -0.10800
C1141       C  0.61204389  0.12482271  0.31978807    -0.09200
C1142       C  0.63711745  0.12671303  0.30935165    -0.10800
C1143       C  0.86207416  0.12513172  0.30752318    -0.09200
C1144       C  0.88695758  0.12774045  0.31817786    -0.10800
C1145       C  0.49644326  0.48860223  0.38112130    -0.09200
C1146       C  0.99663558  0.01369020  0.37065480    -0.10800
C1147       C  0.50186196  0.23855213  0.37111891    -0.09200
C1148       C  0.00208253  0.26361903  0.38176128    -0.10800
C1149       C  0.50122546  0.12640771  0.48289642    -0.09200
C1150       C  0.50081450  0.12674623  0.45646885    -0.10800
C1151       C  0.99947624  0.12591327  0.23291460    -0.09200
C1152       C  0.99944231  0.12571068  0.20649368    -0.10800
C1153       C  0.61284168  0.12766341  0.06911083    -0.09200
C1154       C  0.63786825  0.12761655  0.05845412    -0.10800
C1155       C  0.86305245  0.12258574  0.05686675    -0.09200
C1156       C  0.88815174  0.12260154  0.06734263    -0.10800
C1157       C  0.00394450  0.01230195  0.12003436    -0.09200
C1158       C  0.50392277  0.48720299  0.13048387    -0.10800
C1159       C  0.99863379  0.26239226  0.13052070    -0.09200
C1160       C  0.49825700  0.23734048  0.11985464    -0.10800
O1161       O  0.50438112  0.15041492  0.52846737    -0.74400
C1162       C  0.49610769  0.20669025  0.60942981     0.86600
O1163       O  0.57455553  0.11253823  0.60174387    -0.75600
O1164       O  0.97464981  0.12834288  0.66139720    -0.77000
O1165       O  0.93686883  0.10286306  0.56537420    -0.76800
O1166       O  0.99840460  0.10009204  0.52706876    -0.75500
Zn1167     Zn  0.51930991  0.15542703  0.57013837     1.55700
O1168       O  0.92663182  0.13762161  0.59982629    -0.76900
Cd1169     Cd  0.98250437  0.09411397  0.56929472     1.59700
Cd1170     Cd  0.53151875  0.10646801  0.61964309     1.59600
O1171       O  0.98914094  0.05124070  0.58778862    -0.76800
O1172       O  0.50086707  0.12540491  0.59414883    -1.87400
Cd1173     Cd  0.96919944  0.14391209  0.61885913     1.59900
O1174       O  0.52293741  0.06092495  0.62303360    -0.76800
O1175       O  0.97760720  0.18941015  0.62245982    -0.75500
C1176       C  0.58235782  0.12906627  0.58008892     0.87100
C1177       C  0.50136634  0.12561132  0.51430849     0.86700
O1178       O  0.51302453  0.19745022  0.58840605    -0.74400
C1179       C  0.91862361  0.12088647  0.57829956     0.87500
O1180       O  0.56376707  0.14652261  0.56703196    -0.74500
C1181       C  0.00548627  0.04290159  0.60950845     0.87700
C1182       C  0.99972680  0.12547594  0.67508986     0.88000
O1183       O  0.52509012  0.12241755  0.66192156    -0.76900
O1184       O  0.52479029  0.12997018  0.91095994    -0.74400
C1185       C  0.58136866  0.12220542  0.83009495     0.86600
O1186       O  0.98644547  0.20036046  0.83837492    -0.75600
O1187       O  0.50281010  0.10100894  0.77784107    -0.77000
O1188       O  0.97735603  0.06252376  0.87328523    -0.76800
O1189       O  0.97451791  0.12382119  0.91222716    -0.75500
Zn1190     Zn  0.52985058  0.14503932  0.86937463     1.55700
O1191       O  0.51202849  0.05248041  0.83875544    -0.76900
Cd1192     Cd  0.96860704  0.10816150  0.86983734     1.59700
Cd1193     Cd  0.98054636  0.15743619  0.81995267     1.59600
O1194       O  0.92579214  0.11433438  0.85107470    -0.76800
O1195       O  0.49985712  0.12670381  0.84516365    -1.87400
Cd1196     Cd  0.51859738  0.09526241  0.82026319     1.59900
O1197       O  0.93505953  0.14836459  0.81601995    -0.76800
O1198       O  0.56419768  0.10372878  0.81679663    -0.75500
C1199       C  0.50318563  0.20809784  0.85994516     0.87100
C1200       C  0.50000802  0.12685853  0.92505360     0.86700
O1201       O  0.57194815  0.13891481  0.85122765    -0.74400
C1202       C  0.99521738  0.04431357  0.86012131     0.87500
O1203       O  0.52086030  0.18949127  0.87270948    -0.74500
C1204       C  0.91729483  0.13048318  0.82928455     0.87700
C1205       C  0.99962599  0.12613910  0.76431759     0.88000
O1206       O  0.99655611  0.15145605  0.77764880    -0.76900
O1207       O  0.92901453  0.36168827  0.65013027    -0.74400
C1208       C  0.00088406  0.37431754  0.57638525     0.86600
O1209       O  0.51388721  0.30054706  0.66340904    -0.75600
O1210       O  0.57514914  0.38620553  0.65039255    -0.77000
O1211       O  0.98838767  0.44842221  0.66229797    -0.76800
O1212       O  0.93648240  0.39695464  0.68453048    -0.75500
Zn1213     Zn  0.97108042  0.35596402  0.63195262     1.55700
O1214       O  0.52363220  0.43848647  0.62827863    -0.76900
Cd1215     Cd  0.98200246  0.40573213  0.68099421     1.59700
Cd1216     Cd  0.52005024  0.34354257  0.68165584     1.59600
O1217       O  0.99760569  0.40029183  0.72349511    -0.76800
O1218       O  0.00097824  0.37427380  0.65627674    -1.87400
Cd1219     Cd  0.53232334  0.39279194  0.63169199     1.59900
O1220       O  0.50389402  0.34984910  0.72389677    -0.76800
O1221       O  0.52636857  0.37726453  0.58924542    -0.75500
C1222       C  0.99742634  0.29288025  0.64160835     0.87100
C1223       C  0.91948972  0.37826808  0.67130096     0.86700
O1224       O  0.97608601  0.37119847  0.59044556    -0.74400
C1225       C  0.50545270  0.45662521  0.64113904     0.87500
O1226       O  0.98009839  0.31158080  0.62855044    -0.74500
C1227       C  0.50062782  0.37520517  0.73712289     0.87700
C1228       C  0.58357136  0.36992801  0.67212940     0.88000
O1229       O  0.56565098  0.35225325  0.68547212    -0.76900
O1230       O  0.98741985  0.30350409  0.91329061    -0.74400
C1231       C  0.99935411  0.37559696  0.98713513     0.86600
O1232       O  0.92546176  0.38842733  0.90036402    -0.75600
O1233       O  0.51130066  0.44970683  0.91335962    -0.77000
O1234       O  0.57338752  0.36337782  0.90096912    -0.76800
O1235       O  0.52230415  0.31169166  0.87875466    -0.75500
Zn1236     Zn  0.98107297  0.34557776  0.93149471     1.55700
O1237       O  0.56349081  0.39804775  0.93558590    -0.76900
Cd1238     Cd  0.53067491  0.35717618  0.88232721     1.59700
Cd1239     Cd  0.96835279  0.39456904  0.88204296     1.59600
O1240       O  0.52497229  0.37290817  0.83992603    -0.76800
O1241       O  0.99922312  0.37562432  0.90730042    -1.87400
Cd1242     Cd  0.51786225  0.40690290  0.93196116     1.59900
O1243       O  0.97451817  0.37869845  0.83964903    -0.76800
O1244       O  0.50222969  0.40108528  0.97429747    -0.75500
C1245       C  0.91786584  0.37181577  0.92204068     0.87100
C1246       C  0.00410796  0.29432133  0.89206760     0.86700
O1247       O  0.99627864  0.35075432  0.97305362    -0.74400
C1248       C  0.58159638  0.38003721  0.92246727     0.87500
O1249       O  0.93660183  0.35435329  0.93490061    -0.74500
C1250       C  0.49983518  0.37577774  0.82635389     0.87700
C1251       C  0.49475679  0.45806683  0.89179377     0.88000
O1252       O  0.97701335  0.44011194  0.87854051    -0.76900
O1253       O  0.72624823  0.37014951  0.78505245    -0.74400
C1254       C  0.66964437  0.37731656  0.70396000     0.86600
O1255       O  0.76451898  0.29980889  0.71197494    -0.75600
O1256       O  0.74825499  0.39928951  0.65199125    -0.77000
O1257       O  0.77270304  0.43823659  0.74779580    -0.76800
O1258       O  0.77648229  0.37668619  0.78610975    -0.75500
Zn1259     Zn  0.72114927  0.35499962  0.74340031     1.55700
O1260       O  0.73789855  0.44761208  0.71331774    -0.76900
Cd1261     Cd  0.78210671  0.39259601  0.74385112     1.59700
Cd1262     Cd  0.77043830  0.34281735  0.69386358     1.59600
O1263       O  0.82493081  0.38655171  0.72495278    -0.76800
O1264       O  0.75104887  0.37353004  0.71922504    -1.87400
Cd1265     Cd  0.73219146  0.40480142  0.69438982     1.59900
O1266       O  0.81595552  0.35194548  0.69017627    -0.76800
O1267       O  0.68675201  0.39577473  0.69063256    -0.75500
C1268       C  0.74790972  0.29194948  0.73358429     0.87100
C1269       C  0.75107328  0.37340873  0.79904125     0.86700
O1270       O  0.67905901  0.36090061  0.72522447    -0.74400
C1271       C  0.75441053  0.45609773  0.73480695     0.87500
O1272       O  0.73024439  0.31048884  0.74657363    -0.74500
C1273       C  0.83358913  0.37009459  0.70334327     0.87700
C1274       C  0.75144133  0.37416388  0.63833553     0.88000
O1275       O  0.75454496  0.34884902  0.65154582    -0.76900
O1276       O  0.77531551  0.37804208  0.53507217    -0.74400
C1277       C  0.83174439  0.37047402  0.95419437     0.86600
O1278       O  0.73728015  0.44835396  0.96207691    -0.75600
O1279       O  0.75340483  0.34863432  0.90193184    -0.77000
O1280       O  0.72834590  0.30997689  0.99754811    -0.76800
O1281       O  0.72510235  0.37137004  0.53624402    -0.75500
Zn1282     Zn  0.78032812  0.39327000  0.99353655     1.55700
O1283       O  0.76340101  0.30050566  0.96325435    -0.76900
Cd1284     Cd  0.71924067  0.35567441  0.99390572     1.59700
Cd1285     Cd  0.73131797  0.40532201  0.94401981     1.59600
O1286       O  0.67631006  0.36238171  0.97551040    -0.76800
O1287       O  0.75041880  0.37462701  0.96935347    -1.87400
Cd1288     Cd  0.76914075  0.34323004  0.94443650     1.59900
O1289       O  0.68579536  0.39678068  0.94082414    -0.76800
O1290       O  0.81453229  0.35202941  0.94093846    -0.75500
C1291       C  0.75361116  0.45629135  0.98385940     0.87100
C1292       C  0.75053573  0.37463921  0.54910478     0.86700
O1293       O  0.82243520  0.38721320  0.97535475    -0.74400
C1294       C  0.74674614  0.29208877  0.98463280     0.87500
O1295       O  0.77116390  0.43781019  0.99696850    -0.74500
C1296       C  0.66785703  0.37911133  0.95411326     0.87700
C1297       C  0.75013966  0.37370581  0.88831815     0.88000
O1298       O  0.74689810  0.39904127  0.90158028    -0.76900
O1299       O  0.82295275  0.13734619  0.52578080    -0.74400
C1300       C  0.75072962  0.12503554  0.95231438     0.86600
O1301       O  0.73756863  0.19854874  0.53956596    -0.75600
O1302       O  0.67684171  0.11246069  0.52622806    -0.77000
O1303       O  0.76374272  0.05070390  0.53805229    -0.76800
O1304       O  0.81511085  0.10216137  0.56006165    -0.75500
Zn1305     Zn  0.78077314  0.14350610  0.50786222     1.55700
O1306       O  0.72880919  0.06016644  0.50372808    -0.76900
Cd1307     Cd  0.76969216  0.09348352  0.55683494     1.59700
Cd1308     Cd  0.73185849  0.15554864  0.55761887     1.59600
O1309       O  0.75410916  0.09896861  0.59941325    -0.76800
O1310       O  0.75093623  0.12485425  0.53208725    -1.87400
Cd1311     Cd  0.71970928  0.10587840  0.50756776     1.59900
O1312       O  0.74759971  0.14937317  0.59998097    -0.76800
O1313       O  0.72537458  0.12166542  0.96530578    -0.75500
C1314       C  0.75388049  0.20647040  0.51777912     0.87100
C1315       C  0.83231509  0.12054535  0.54678503     0.86700
O1316       O  0.77558316  0.12840017  0.96622373    -0.74400
C1317       C  0.74708613  0.04225311  0.51667193     0.87500
O1318       O  0.77155263  0.18802474  0.50466850    -0.74500
C1319       C  0.75081770  0.12404109  0.61313439     0.87700
C1320       C  0.66843710  0.12910728  0.54779201     0.88000
O1321       O  0.68637769  0.14682978  0.56107537    -0.76900
O1322       O  0.82196154  0.13788006  0.77572701    -0.74400
C1323       C  0.74978145  0.12393131  0.70240477     0.86600
O1324       O  0.73682890  0.19866554  0.78893020    -0.75600
O1325       O  0.67610991  0.11208035  0.77694661    -0.77000
O1326       O  0.76365095  0.05086627  0.78853399    -0.76800
O1327       O  0.81469333  0.10313122  0.81051604    -0.75500
Zn1328     Zn  0.77980379  0.14320013  0.75763549     1.55700
O1329       O  0.72822601  0.05979034  0.75453844    -0.76900
Cd1330     Cd  0.76931689  0.09384404  0.80709373     1.59700
Cd1331     Cd  0.73098600  0.15581674  0.80744033     1.59600
O1332       O  0.75375368  0.09968260  0.84960910    -0.76800
O1333       O  0.75011579  0.12485366  0.78218732    -1.87400
Cd1334     Cd  0.71888242  0.10550412  0.75798283     1.59900
O1335       O  0.74731753  0.15011149  0.84966944    -0.76800
O1336       O  0.72441980  0.12078669  0.71546604    -0.75500
C1337       C  0.75310028  0.20630005  0.76700268     0.87100
C1338       C  0.83157176  0.12169692  0.79706804     0.86700
O1339       O  0.77464964  0.12740913  0.71625928    -0.74400
C1340       C  0.74682443  0.04212469  0.76737774     0.87500
O1341       O  0.77053661  0.18761570  0.75392569    -0.74500
C1342       C  0.75073997  0.12493954  0.86307054     0.87700
C1343       C  0.66760387  0.12883875  0.79840600     0.88000
O1344       O  0.68542377  0.14693853  0.81140465    -0.76900
C1345       C  0.75123465  0.12507405  0.92090579    -0.09200
C1346       C  0.75115769  0.12503484  0.89447925    -0.10800
C1347       C  0.75033220  0.12371066  0.67098539    -0.09200
C1348       C  0.75064765  0.12375051  0.64455449    -0.10800
C1349       C  0.75152342  0.48674147  0.99502788    -0.09200
C1350       C  0.74956171  0.01174457  0.50572763    -0.10800
C1351       C  0.74942003  0.26168726  0.99567877    -0.09200
C1352       C  0.75157498  0.23682183  0.50653257    -0.10800
C1353       C  0.75018622  0.37342959  0.85689487    -0.09200
C1354       C  0.75043147  0.37336148  0.83046138    -0.10800
C1355       C  0.75146401  0.37437663  0.60692807    -0.09200
C1356       C  0.75124190  0.37452363  0.58050534    -0.10800
C1357       C  0.75174052  0.48657954  0.74583128    -0.09200
C1358       C  0.74950947  0.01158603  0.75650539    -0.10800
C1359       C  0.75120949  0.23664557  0.75565875    -0.09200
C1360       C  0.74972902  0.26152721  0.74474098    -0.10800
C1361       C  0.63721547  0.37782731  0.94367442    -0.09200
C1362       C  0.61212130  0.37817001  0.93321063    -0.10800
C1363       C  0.86240460  0.37271348  0.94388365    -0.09200
C1364       C  0.88743474  0.37304313  0.93322320    -0.10800
C1365       C  0.50006187  0.37568207  0.79494780    -0.09200
C1366       C  0.50032202  0.37551142  0.76852655    -0.10800
C1367       C  0.99963718  0.37487216  0.51854628    -0.09200
C1368       C  0.00009859  0.37451921  0.54497190    -0.10800
C1369       C  0.61404490  0.37221174  0.68303675    -0.09200
C1370       C  0.63905771  0.37436397  0.69353383    -0.10800
C1371       C  0.88894612  0.37516014  0.68178277    -0.09200
C1372       C  0.86399235  0.37273828  0.69234927    -0.10800
C1373       C  0.61204393  0.12482271  0.81978805    -0.09200
C1374       C  0.63711743  0.12671302  0.80935170    -0.10800
C1375       C  0.86207389  0.12513168  0.80752314    -0.09200
C1376       C  0.88695781  0.12774043  0.81817799    -0.10800
C1377       C  0.49644326  0.48860237  0.88112121    -0.09200
C1378       C  0.99663558  0.01369045  0.87065471    -0.10800
C1379       C  0.50186193  0.23855218  0.87111896    -0.09200
C1380       C  0.00208262  0.26361908  0.88176128    -0.10800
C1381       C  0.50122540  0.12640769  0.98289643    -0.09200
C1382       C  0.50081449  0.12674616  0.95646883    -0.10800
C1383       C  0.99947625  0.12591335  0.73291461    -0.09200
C1384       C  0.99944230  0.12571079  0.70649367    -0.10800
C1385       C  0.61284168  0.12766338  0.56911080    -0.09200
C1386       C  0.63786829  0.12761654  0.55845410    -0.10800
C1387       C  0.86305258  0.12258574  0.55686679    -0.09200
C1388       C  0.88815161  0.12260153  0.56734252    -0.10800
C1389       C  0.00394454  0.01230207  0.62003434    -0.09200
C1390       C  0.50392279  0.48720287  0.63048389    -0.10800
C1391       C  0.99863377  0.26239232  0.63052072    -0.09200
C1392       C  0.49825696  0.23734045  0.61985457    -0.10800
O1393       O  0.50438123  0.65041494  0.02846739    -0.74400
C1394       C  0.49610765  0.70669025  0.10942986     0.86600
O1395       O  0.57455558  0.61253821  0.10174385    -0.75600
O1396       O  0.97464979  0.62834288  0.16139722    -0.77000
O1397       O  0.93686894  0.60286305  0.06537423    -0.76800
O1398       O  0.99840468  0.60009208  0.02706875    -0.75500
Zn1399     Zn  0.51930994  0.65542705  0.07013839     1.55700
O1400       O  0.92663190  0.63762164  0.09982632    -0.76900
Cd1401     Cd  0.98250444  0.59411398  0.06929473     1.59700
Cd1402     Cd  0.53151872  0.60646803  0.11964308     1.59600
O1403       O  0.98914100  0.55124070  0.08778862    -0.76800
O1404       O  0.50086703  0.62540494  0.09414883    -1.87400
Cd1405     Cd  0.96919949  0.64391212  0.11885915     1.59900
O1406       O  0.52293733  0.56092496  0.12303363    -0.76800
O1407       O  0.97760728  0.68941018  0.12245985    -0.75500
C1408       C  0.58235770  0.62906627  0.08008901     0.87100
C1409       C  0.50136636  0.62561129  0.01430849     0.86700
O1410       O  0.51302456  0.69745022  0.08840607    -0.74400
C1411       C  0.91862354  0.62088647  0.07829954     0.87500
O1412       O  0.56376716  0.64652263  0.06703202    -0.74500
C1413       C  0.00548636  0.54290169  0.10950849     0.87700
C1414       C  0.99972679  0.62547591  0.17508988     0.88000
O1415       O  0.52509014  0.62241757  0.16192157    -0.76900
O1416       O  0.52479038  0.62997016  0.41095994    -0.74400
C1417       C  0.58136877  0.62220539  0.33009491     0.86600
O1418       O  0.98644547  0.70036044  0.33837489    -0.75600
O1419       O  0.50281010  0.60100888  0.27784108    -0.77000
O1420       O  0.97735598  0.56252375  0.37328523    -0.76800
O1421       O  0.97451786  0.62382119  0.41222716    -0.75500
Zn1422     Zn  0.52985060  0.64503931  0.36937461     1.55700
O1423       O  0.51202848  0.55248039  0.33875547    -0.76900
Cd1424     Cd  0.96860702  0.60816151  0.36983734     1.59700
Cd1425     Cd  0.98054636  0.65743615  0.31995268     1.59600
O1426       O  0.92579212  0.61433440  0.35107469    -0.76800
O1427       O  0.49985711  0.62670378  0.34516364    -1.87400
Cd1428     Cd  0.51859739  0.59526237  0.32026321     1.59900
O1429       O  0.93505952  0.64836458  0.31601996    -0.76800
O1430       O  0.56419764  0.60372874  0.31679665    -0.75500
C1431       C  0.50318570  0.70809780  0.35994513     0.87100
C1432       C  0.50000802  0.62685853  0.42505358     0.86700
O1433       O  0.57194811  0.63891481  0.35122766    -0.74400
C1434       C  0.99521735  0.54431360  0.36012129     0.87500
O1435       O  0.52086032  0.68949128  0.37270946    -0.74500
C1436       C  0.91729490  0.63048321  0.32928456     0.87700
C1437       C  0.99962596  0.62613897  0.26431761     0.88000
O1438       O  0.99655608  0.65145598  0.27764880    -0.76900
O1439       O  0.92901459  0.86168829  0.15013028    -0.74400
C1440       C  0.00088404  0.87431755  0.07638525     0.86600
O1441       O  0.51388718  0.80054709  0.16340903    -0.75600
O1442       O  0.57514917  0.88620547  0.15039254    -0.77000
O1443       O  0.98838766  0.94842222  0.16229797    -0.76800
O1444       O  0.93648249  0.89695465  0.18453054    -0.75500
Zn1445     Zn  0.97108043  0.85596403  0.13195263     1.55700
O1446       O  0.52363226  0.93848652  0.12827868    -0.76900
Cd1447     Cd  0.98200251  0.90573213  0.18099424     1.59700
Cd1448     Cd  0.52005023  0.84354260  0.18165583     1.59600
O1449       O  0.99760581  0.90029185  0.22349513    -0.76800
O1450       O  0.00097824  0.87427381  0.15627673    -1.87400
Cd1451     Cd  0.53232334  0.89279195  0.13169200     1.59900
O1452       O  0.50389399  0.84984916  0.22389681    -0.76800
O1453       O  0.52636852  0.87726459  0.08924544    -0.75500
C1454       C  0.99742640  0.79288029  0.14160839     0.87100
C1455       C  0.91948959  0.87826809  0.17130107     0.86700
O1456       O  0.97608605  0.87119849  0.09044555    -0.74400
C1457       C  0.50545271  0.95662514  0.14113908     0.87500
O1458       O  0.98009841  0.81158081  0.12855044    -0.74500
C1459       C  0.50062781  0.87520512  0.23712278     0.87700
C1460       C  0.58357127  0.86992802  0.17212931     0.88000
O1461       O  0.56565096  0.85225329  0.18547214    -0.76900
O1462       O  0.98741985  0.80350406  0.41329064    -0.74400
C1463       C  0.99935409  0.87559700  0.48713512     0.86600
O1464       O  0.92546173  0.88842727  0.40036407    -0.75600
O1465       O  0.51130071  0.94970682  0.41335955    -0.77000
O1466       O  0.57338753  0.86337782  0.40096910    -0.76800
O1467       O  0.52230420  0.81169162  0.37875472    -0.75500
Zn1468     Zn  0.98107298  0.84557773  0.43149474     1.55700
O1469       O  0.56349084  0.89804775  0.43558588    -0.76900
Cd1470     Cd  0.53067494  0.85717617  0.38232725     1.59700
Cd1471     Cd  0.96835274  0.89456902  0.38204297     1.59600
O1472       O  0.52497233  0.87290809  0.33992600    -0.76800
O1473       O  0.99922308  0.87562429  0.40730042    -1.87400
Cd1474     Cd  0.51786228  0.90690289  0.43196114     1.59900
O1475       O  0.97451811  0.87869845  0.33964898    -0.76800
O1476       O  0.50222976  0.90108529  0.47429745    -0.75500
C1477       C  0.91786594  0.87181574  0.42204071     0.87100
C1478       C  0.00410793  0.79432134  0.39206763     0.86700
O1479       O  0.99627870  0.85075432  0.47305363    -0.74400
C1480       C  0.58159643  0.88003720  0.42246730     0.87500
O1481       O  0.93660182  0.85435328  0.43490069    -0.74500
C1482       C  0.49983521  0.87577772  0.32635401     0.87700
C1483       C  0.49475678  0.95806680  0.39179382     0.88000
O1484       O  0.97701330  0.94011196  0.37854053    -0.76900
O1485       O  0.72624817  0.87014953  0.28505245    -0.74400
C1486       C  0.66964445  0.87731656  0.20396004     0.86600
O1487       O  0.76451899  0.79980895  0.21197488    -0.75600
O1488       O  0.74825495  0.89928955  0.15199122    -0.77000
O1489       O  0.77270303  0.93823656  0.24779583    -0.76800
O1490       O  0.77648223  0.87668620  0.28610977    -0.75500
Zn1491     Zn  0.72114926  0.85499963  0.24340032     1.55700
O1492       O  0.73789853  0.94761208  0.21331776    -0.76900
Cd1493     Cd  0.78210669  0.89259605  0.24385112     1.59700
Cd1494     Cd  0.77043829  0.84281739  0.19386357     1.59600
O1495       O  0.82493075  0.88655174  0.22495282    -0.76800
O1496       O  0.75104885  0.87353008  0.21922504    -1.87400
Cd1497     Cd  0.73219142  0.90480147  0.19438981     1.59900
O1498       O  0.81595547  0.85194550  0.19017627    -0.76800
O1499       O  0.68675196  0.89577474  0.19063258    -0.75500
C1500       C  0.74790970  0.79194947  0.23358434     0.87100
C1501       C  0.75107323  0.87340872  0.29904118     0.86700
O1502       O  0.67905899  0.86090059  0.22522444    -0.74400
C1503       C  0.75441044  0.95609783  0.23480693     0.87500
O1504       O  0.73024444  0.81048886  0.24657362    -0.74500
C1505       C  0.83358929  0.87009464  0.20334325     0.87700
C1506       C  0.75144134  0.87416395  0.13833551     0.88000
O1507       O  0.75454497  0.84884906  0.15154582    -0.76900
O1508       O  0.77531554  0.87804203  0.03507216    -0.74400
C1509       C  0.83174433  0.87047405  0.45419445     0.86600
O1510       O  0.73728012  0.94835393  0.46207686    -0.75600
O1511       O  0.75340486  0.84863426  0.40193181    -0.77000
O1512       O  0.72834588  0.80997683  0.49754809    -0.76800
O1513       O  0.72510236  0.87137007  0.03624400    -0.75500
Zn1514     Zn  0.78032809  0.89327000  0.49353655     1.55700
O1515       O  0.76340106  0.80050564  0.46325442    -0.76900
Cd1516     Cd  0.71924066  0.85567438  0.49390572     1.59700
Cd1517     Cd  0.73131796  0.90532195  0.44401979     1.59600
O1518       O  0.67631006  0.86238163  0.47551048    -0.76800
O1519       O  0.75041880  0.87462698  0.46935348    -1.87400
Cd1520     Cd  0.76914079  0.84323004  0.44443652     1.59900
O1521       O  0.68579537  0.89678054  0.44082416    -0.76800
O1522       O  0.81453233  0.85202946  0.44093848    -0.75500
C1523       C  0.75361116  0.95629133  0.48385934     0.87100
C1524       C  0.75053591  0.87463923  0.04910477     0.86700
O1525       O  0.82243522  0.88721321  0.47535477    -0.74400
C1526       C  0.74674620  0.79208880  0.48463276     0.87500
O1527       O  0.77116388  0.93781018  0.49696845    -0.74500
C1528       C  0.66785701  0.87911129  0.45411324     0.87700
C1529       C  0.75013966  0.87370571  0.38831820     0.88000
O1530       O  0.74689807  0.89904119  0.40158024    -0.76900
O1531       O  0.82295283  0.63734616  0.02578073    -0.74400
C1532       C  0.75072967  0.62503560  0.45231436     0.86600
O1533       O  0.73756872  0.69854875  0.03956592    -0.75600
O1534       O  0.67684171  0.61246070  0.02622812    -0.77000
O1535       O  0.76374276  0.55070394  0.03805224    -0.76800
O1536       O  0.81511090  0.60216137  0.06006163    -0.75500
Zn1537     Zn  0.78077321  0.64350605  0.00786217     1.55700
O1538       O  0.72880921  0.56016649  0.00372806    -0.76900
Cd1539     Cd  0.76969224  0.59348355  0.05683491     1.59700
Cd1540     Cd  0.73185856  0.65554865  0.05761884     1.59600
O1541       O  0.75410922  0.59896861  0.09941322    -0.76800
O1542       O  0.75093629  0.62485427  0.03208723    -1.87400
Cd1543     Cd  0.71970934  0.60587842  0.00756777     1.59900
O1544       O  0.74759978  0.64937318  0.09998096    -0.76800
O1545       O  0.72537471  0.62166544  0.46530577    -0.75500
C1546       C  0.75388057  0.70647028  0.01777911     0.87100
C1547       C  0.83231531  0.62054531  0.04678505     0.86700
O1548       O  0.77558329  0.62840027  0.46622372    -0.74400
C1549       C  0.74708625  0.54225312  0.01667199     0.87500
O1550       O  0.77155267  0.68802477  0.00466844    -0.74500
C1551       C  0.75081777  0.62404110  0.11313439     0.87700
C1552       C  0.66843730  0.62910730  0.04779200     0.88000
O1553       O  0.68637768  0.64682980  0.06107537    -0.76900
O1554       O  0.82196156  0.63788006  0.27572700    -0.74400
C1555       C  0.74978146  0.62393129  0.20240471     0.86600
O1556       O  0.73682885  0.69866552  0.28893012    -0.75600
O1557       O  0.67610996  0.61208033  0.27694656    -0.77000
O1558       O  0.76365096  0.55086630  0.28853400    -0.76800
O1559       O  0.81469336  0.60313122  0.31051602    -0.75500
Zn1560     Zn  0.77980381  0.64320014  0.25763546     1.55700
O1561       O  0.72822600  0.55979040  0.25453845    -0.76900
Cd1562     Cd  0.76931692  0.59384406  0.30709371     1.59700
Cd1563     Cd  0.73098597  0.65581675  0.30744028     1.59600
O1564       O  0.75375373  0.59968266  0.34960909    -0.76800
O1565       O  0.75011580  0.62485367  0.28218730    -1.87400
Cd1566     Cd  0.71888242  0.60550414  0.25798280     1.59900
O1567       O  0.74731748  0.65011154  0.34966941    -0.76800
O1568       O  0.72441985  0.62078668  0.21546601    -0.75500
C1569       C  0.75310028  0.70630008  0.26700257     0.87100
C1570       C  0.83157173  0.62169696  0.29706793     0.86700
O1571       O  0.77464969  0.62740913  0.21625924    -0.74400
C1572       C  0.74682446  0.54212463  0.26737775     0.87500
O1573       O  0.77053666  0.68761570  0.25392567    -0.74500
C1574       C  0.75073998  0.62493959  0.36307054     0.87700
C1575       C  0.66760374  0.62883876  0.29840598     0.88000
O1576       O  0.68542378  0.64693856  0.31140460    -0.76900
C1577       C  0.75123472  0.62507414  0.42090579    -0.09200
C1578       C  0.75115771  0.62503491  0.39447923    -0.10800
C1579       C  0.75033225  0.62371062  0.17098537    -0.09200
C1580       C  0.75064770  0.62375051  0.14455444    -0.10800
C1581       C  0.75152342  0.98674147  0.49502782    -0.09200
C1582       C  0.74956175  0.51174460  0.00572768    -0.10800
C1583       C  0.74942007  0.76168717  0.49567881    -0.09200
C1584       C  0.75157503  0.73682197  0.00653249    -0.10800
C1585       C  0.75018619  0.87342952  0.35689476    -0.09200
C1586       C  0.75043141  0.87336141  0.33046146    -0.10800
C1587       C  0.75146409  0.87437667  0.10692805    -0.09200
C1588       C  0.75124198  0.87452366  0.08050531    -0.10800
C1589       C  0.75174051  0.98657945  0.24583124    -0.09200
C1590       C  0.74950945  0.51158616  0.25650544    -0.10800
C1591       C  0.75120951  0.73664550  0.25565871    -0.09200
C1592       C  0.74972905  0.76152729  0.24474093    -0.10800
C1593       C  0.63721552  0.87782724  0.44367446    -0.09200
C1594       C  0.61212127  0.87816996  0.43321065    -0.10800
C1595       C  0.86240474  0.87271349  0.44388369    -0.09200
C1596       C  0.88743465  0.87304314  0.43322332    -0.10800
C1597       C  0.50006191  0.87568204  0.29494765    -0.09200
C1598       C  0.50032204  0.87551141  0.26852671    -0.10800
C1599       C  0.99963716  0.87487215  0.01854627    -0.09200
C1600       C  0.00009860  0.87451922  0.04497190    -0.10800
C1601       C  0.61404502  0.87221171  0.18303678    -0.09200
C1602       C  0.63905758  0.87436394  0.19353377    -0.10800
C1603       C  0.88894636  0.87516019  0.18178274    -0.09200
C1604       C  0.86399215  0.87273829  0.19234940    -0.10800
C1605       C  0.61204376  0.62482269  0.31978809    -0.09200
C1606       C  0.63711756  0.62671305  0.30935158    -0.10800
C1607       C  0.86207399  0.62513171  0.30752312    -0.09200
C1608       C  0.88695774  0.62774046  0.31817794    -0.10800
C1609       C  0.49644320  0.98860240  0.38112123    -0.09200
C1610       C  0.99663554  0.51369041  0.37065476    -0.10800
C1611       C  0.50186199  0.73855222  0.37111893    -0.09200
C1612       C  0.00208255  0.76361900  0.38176125    -0.10800
C1613       C  0.50122545  0.62640772  0.48289640    -0.09200
C1614       C  0.50081453  0.62674619  0.45646883    -0.10800
C1615       C  0.99947621  0.62591325  0.23291461    -0.09200
C1616       C  0.99944226  0.62571071  0.20649370    -0.10800
C1617       C  0.61284193  0.62766335  0.06911075    -0.09200
C1618       C  0.63786812  0.62761653  0.05845423    -0.10800
C1619       C  0.86305249  0.62258570  0.05686671    -0.09200
C1620       C  0.88815184  0.62260150  0.06734261    -0.10800
C1621       C  0.00394456  0.51230200  0.12003440    -0.09200
C1622       C  0.50392283  0.98720301  0.13048386    -0.10800
C1623       C  0.99863384  0.76239231  0.13052071    -0.09200
C1624       C  0.49825697  0.73734049  0.11985460    -0.10800
O1625       O  0.50438115  0.65041497  0.52846738    -0.74400
C1626       C  0.49610766  0.70669020  0.60942985     0.86600
O1627       O  0.57455553  0.61253822  0.60174387    -0.75600
O1628       O  0.97464984  0.62834284  0.66139719    -0.77000
O1629       O  0.93686893  0.60286310  0.56537424    -0.76800
O1630       O  0.99840458  0.60009210  0.52706874    -0.75500
Zn1631     Zn  0.51930992  0.65542703  0.57013835     1.55700
O1632       O  0.92663194  0.63762168  0.59982637    -0.76900
Cd1633     Cd  0.98250439  0.59411397  0.56929472     1.59700
Cd1634     Cd  0.53151875  0.60646803  0.61964307     1.59600
O1635       O  0.98914091  0.55124074  0.58778863    -0.76800
O1636       O  0.50086705  0.62540492  0.59414882    -1.87400
Cd1637     Cd  0.96919951  0.64391209  0.61885913     1.59900
O1638       O  0.52293738  0.56092497  0.62303359    -0.76800
O1639       O  0.97760730  0.68941009  0.62245985    -0.75500
C1640       C  0.58235780  0.62906631  0.58008889     0.87100
C1641       C  0.50136633  0.62561123  0.51430848     0.86700
O1642       O  0.51302454  0.69745018  0.58840604    -0.74400
C1643       C  0.91862349  0.62088647  0.57829949     0.87500
O1644       O  0.56376709  0.64652260  0.56703196    -0.74500
C1645       C  0.00548629  0.54290160  0.60950847     0.87700
C1646       C  0.99972683  0.62547592  0.67508985     0.88000
O1647       O  0.52509010  0.62241759  0.66192156    -0.76900
O1648       O  0.52479033  0.62997023  0.91095995    -0.74400
C1649       C  0.58136878  0.62220538  0.83009492     0.86600
O1650       O  0.98644544  0.70036044  0.83837493    -0.75600
O1651       O  0.50281013  0.60100890  0.77784105    -0.77000
O1652       O  0.97735601  0.56252369  0.87328524    -0.76800
O1653       O  0.97451788  0.62382117  0.91222719    -0.75500
Zn1654     Zn  0.52985058  0.64503934  0.86937460     1.55700
O1655       O  0.51202845  0.55248035  0.83875546    -0.76900
Cd1656     Cd  0.96860704  0.60816149  0.86983735     1.59700
Cd1657     Cd  0.98054635  0.65743618  0.81995268     1.59600
O1658       O  0.92579210  0.61433440  0.85107467    -0.76800
O1659       O  0.49985709  0.62670380  0.84516365    -1.87400
Cd1660     Cd  0.51859737  0.59526240  0.82026319     1.59900
O1661       O  0.93505954  0.64836457  0.81601995    -0.76800
O1662       O  0.56419762  0.60372871  0.81679667    -0.75500
C1663       C  0.50318567  0.70809784  0.85994514     0.87100
C1664       C  0.50000800  0.62685856  0.92505359     0.86700
O1665       O  0.57194809  0.63891481  0.85122766    -0.74400
C1666       C  0.99521738  0.54431371  0.86012125     0.87500
O1667       O  0.52086033  0.68949126  0.87270943    -0.74500
C1668       C  0.91729499  0.63048316  0.82928463     0.87700
C1669       C  0.99962597  0.62613914  0.76431759     0.88000
O1670       O  0.99655613  0.65145601  0.77764879    -0.76900
O1671       O  0.92901454  0.86168831  0.65013026    -0.74400
C1672       C  0.00088402  0.87431758  0.57638524     0.86600
O1673       O  0.51388718  0.80054702  0.66340903    -0.75600
O1674       O  0.57514915  0.88620546  0.65039254    -0.77000
O1675       O  0.98838770  0.94842218  0.66229801    -0.76800
O1676       O  0.93648246  0.89695463  0.68453053    -0.75500
Zn1677     Zn  0.97108040  0.85596401  0.63195261     1.55700
O1678       O  0.52363219  0.93848645  0.62827866    -0.76900
Cd1679     Cd  0.98200250  0.90573210  0.68099423     1.59700
Cd1680     Cd  0.52005023  0.84354254  0.68165584     1.59600
O1681       O  0.99760577  0.90029178  0.72349511    -0.76800
O1682       O  0.00097823  0.87427377  0.65627674    -1.87400
Cd1683     Cd  0.53232332  0.89279190  0.63169200     1.59900
O1684       O  0.50389405  0.84984907  0.72389678    -0.76800
O1685       O  0.52636852  0.87726451  0.58924544    -0.75500
C1686       C  0.99742633  0.79288025  0.64160834     0.87100
C1687       C  0.91948964  0.87826807  0.67130101     0.86700
O1688       O  0.97608596  0.87119851  0.59044557    -0.74400
C1689       C  0.50545273  0.95662516  0.64113905     0.87500
O1690       O  0.98009835  0.81158076  0.62855041    -0.74500
C1691       C  0.50062782  0.87520513  0.73712289     0.87700
C1692       C  0.58357133  0.86992794  0.67212935     0.88000
O1693       O  0.56565099  0.85225320  0.68547210    -0.76900
O1694       O  0.98741982  0.80350407  0.91329062    -0.74400
C1695       C  0.99935410  0.87559697  0.98713511     0.86600
O1696       O  0.92546173  0.88842728  0.90036404    -0.75600
O1697       O  0.51130074  0.94970675  0.91335959    -0.77000
O1698       O  0.57338758  0.86337780  0.90096911    -0.76800
O1699       O  0.52230423  0.81169163  0.87875471    -0.75500
Zn1700     Zn  0.98107294  0.84557773  0.93149472     1.55700
O1701       O  0.56349086  0.89804773  0.93558587    -0.76900
Cd1702     Cd  0.53067498  0.85717615  0.88232723     1.59700
Cd1703     Cd  0.96835276  0.89456901  0.88204295     1.59600
O1704       O  0.52497237  0.87290811  0.83992604    -0.76800
O1705       O  0.99922309  0.87562428  0.90730042    -1.87400
Cd1706     Cd  0.51786232  0.90690288  0.93196114     1.59900
O1707       O  0.97451814  0.87869840  0.83964902    -0.76800
O1708       O  0.50222978  0.90108525  0.97429745    -0.75500
C1709       C  0.91786593  0.87181576  0.92204065     0.87100
C1710       C  0.00410791  0.79432131  0.89206760     0.86700
O1711       O  0.99627867  0.85075429  0.97305363    -0.74400
C1712       C  0.58159641  0.88003718  0.92246726     0.87500
O1713       O  0.93660182  0.85435328  0.93490064    -0.74500
C1714       C  0.49983525  0.87577770  0.82635391     0.87700
C1715       C  0.49475684  0.95806696  0.89179373     0.88000
O1716       O  0.97701332  0.94011189  0.87854051    -0.76900
O1717       O  0.72624820  0.87014950  0.78505244    -0.74400
C1718       C  0.66964440  0.87731653  0.70396000     0.86600
O1719       O  0.76451897  0.79980891  0.71197492    -0.75600
O1720       O  0.74825495  0.89928963  0.65199126    -0.77000
O1721       O  0.77270306  0.93823660  0.74779582    -0.76800
O1722       O  0.77648226  0.87668619  0.78610976    -0.75500
Zn1723     Zn  0.72114927  0.85499962  0.74340031     1.55700
O1724       O  0.73789857  0.94761213  0.71331778    -0.76900
Cd1725     Cd  0.78210670  0.89259602  0.74385113     1.59700
Cd1726     Cd  0.77043830  0.84281738  0.69386358     1.59600
O1727       O  0.82493079  0.88655169  0.72495283    -0.76800
O1728       O  0.75104885  0.87353006  0.71922503    -1.87400
Cd1729     Cd  0.73219142  0.90480145  0.69438979     1.59900
O1730       O  0.81595549  0.85194552  0.69017625    -0.76800
O1731       O  0.68675197  0.89577475  0.69063257    -0.75500
C1732       C  0.74790973  0.79194948  0.73358426     0.87100
C1733       C  0.75107324  0.87340870  0.79904126     0.86700
O1734       O  0.67905900  0.86090057  0.72522441    -0.74400
C1735       C  0.75441050  0.95609770  0.73480686     0.87500
O1736       O  0.73024440  0.81048885  0.74657363    -0.74500
C1737       C  0.83358923  0.87009460  0.70334325     0.87700
C1738       C  0.75144133  0.87416388  0.63833551     0.88000
O1739       O  0.75454493  0.84884913  0.65154579    -0.76900
O1740       O  0.77531552  0.87804204  0.53507216    -0.74400
C1741       C  0.83174432  0.87047402  0.95419437     0.86600
O1742       O  0.73728017  0.94835391  0.96207687    -0.75600
O1743       O  0.75340487  0.84863428  0.90193184    -0.77000
O1744       O  0.72834592  0.80997685  0.99754808    -0.76800
O1745       O  0.72510234  0.87137004  0.53624402    -0.75500
Zn1746     Zn  0.78032812  0.89327002  0.99353653     1.55700
O1747       O  0.76340109  0.80050567  0.96325439    -0.76900
Cd1748     Cd  0.71924070  0.85567441  0.99390571     1.59700
Cd1749     Cd  0.73131799  0.90532201  0.94401981     1.59600
O1750       O  0.67631009  0.86238168  0.97551042    -0.76800
O1751       O  0.75041882  0.87462702  0.96935347    -1.87400
Cd1752     Cd  0.76914079  0.84323006  0.94443651     1.59900
O1753       O  0.68579538  0.89678066  0.94082419    -0.76800
O1754       O  0.81453237  0.85202947  0.94093849    -0.75500
C1755       C  0.75361120  0.95629141  0.98385938     0.87100
C1756       C  0.75053583  0.87463920  0.54910478     0.86700
O1757       O  0.82243523  0.88721325  0.97535477    -0.74400
C1758       C  0.74674623  0.79208886  0.98463275     0.87500
O1759       O  0.77116394  0.93781018  0.99696847    -0.74500
C1760       C  0.66785709  0.87911135  0.95411328     0.87700
C1761       C  0.75013965  0.87370580  0.88831815     0.88000
O1762       O  0.74689806  0.89904122  0.90158028    -0.76900
O1763       O  0.82295279  0.63734618  0.52578076    -0.74400
C1764       C  0.75072961  0.62503551  0.95231436     0.86600
O1765       O  0.73756868  0.69854874  0.53956591    -0.75600
O1766       O  0.67684177  0.61246070  0.52622806    -0.77000
O1767       O  0.76374277  0.55070393  0.53805231    -0.76800
O1768       O  0.81511088  0.60216133  0.56006165    -0.75500
Zn1769     Zn  0.78077322  0.64350608  0.50786221     1.55700
O1770       O  0.72880927  0.56016654  0.50372806    -0.76900
Cd1771     Cd  0.76969226  0.59348354  0.55683497     1.59700
Cd1772     Cd  0.73185855  0.65554863  0.55761886     1.59600
O1773       O  0.75410925  0.59896861  0.59941324    -0.76800
O1774       O  0.75093632  0.62485425  0.53208727    -1.87400
Cd1775     Cd  0.71970937  0.60587843  0.50756777     1.59900
O1776       O  0.74759979  0.64937317  0.59998100    -0.76800
O1777       O  0.72537468  0.62166542  0.96530575    -0.75500
C1778       C  0.75388052  0.70647030  0.51777917     0.87100
C1779       C  0.83231537  0.62054533  0.54678508     0.86700
O1780       O  0.77558326  0.62840020  0.96622373    -0.74400
C1781       C  0.74708625  0.54225304  0.51667195     0.87500
O1782       O  0.77155272  0.68802475  0.50466850    -0.74500
C1783       C  0.75081776  0.62404121  0.61313440     0.87700
C1784       C  0.66843717  0.62910728  0.54779204     0.88000
O1785       O  0.68637772  0.64682976  0.56107540    -0.76900
O1786       O  0.82196160  0.63788005  0.77572701    -0.74400
C1787       C  0.74978143  0.62393132  0.70240476     0.86600
O1788       O  0.73682885  0.69866553  0.78893016    -0.75600
O1789       O  0.67610998  0.61208031  0.77694658    -0.77000
O1790       O  0.76365101  0.55086630  0.78853397    -0.76800
O1791       O  0.81469337  0.60313128  0.81051605    -0.75500
Zn1792     Zn  0.77980382  0.64320012  0.75763549     1.55700
O1793       O  0.72822600  0.55979036  0.75453846    -0.76900
Cd1794     Cd  0.76931693  0.59384403  0.80709371     1.59700
Cd1795     Cd  0.73098599  0.65581672  0.80744034     1.59600
O1796       O  0.75375371  0.59968265  0.84960910    -0.76800
O1797       O  0.75011581  0.62485365  0.78218732    -1.87400
Cd1798     Cd  0.71888242  0.60550412  0.75798283     1.59900
O1799       O  0.74731755  0.65011155  0.84966942    -0.76800
O1800       O  0.72441987  0.62078667  0.71546602    -0.75500
C1801       C  0.75310027  0.70630004  0.76700263     0.87100
C1802       C  0.83157165  0.62169693  0.79706799     0.86700
O1803       O  0.77464970  0.62740911  0.71625928    -0.74400
C1804       C  0.74682446  0.54212464  0.76737771     0.87500
O1805       O  0.77053662  0.68761571  0.75392570    -0.74500
C1806       C  0.75074000  0.62493945  0.86307053     0.87700
C1807       C  0.66760375  0.62883869  0.79840607     0.88000
O1808       O  0.68542382  0.64693847  0.81140468    -0.76900
C1809       C  0.75123471  0.62507400  0.92090578    -0.09200
C1810       C  0.75115769  0.62503483  0.89447923    -0.10800
C1811       C  0.75033223  0.62371072  0.67098538    -0.09200
C1812       C  0.75064768  0.62375054  0.64455450    -0.10800
C1813       C  0.75152345  0.98674138  0.99502778    -0.09200
C1814       C  0.74956175  0.51174473  0.50572769    -0.10800
C1815       C  0.74942012  0.76168717  0.99567880    -0.09200
C1816       C  0.75157501  0.73682191  0.50653252    -0.10800
C1817       C  0.75018618  0.87342956  0.85689487    -0.09200
C1818       C  0.75043143  0.87336144  0.83046138    -0.10800
C1819       C  0.75146406  0.87437671  0.60692807    -0.09200
C1820       C  0.75124196  0.87452363  0.58050531    -0.10800
C1821       C  0.75174054  0.98657965  0.74583129    -0.09200
C1822       C  0.74950947  0.51158612  0.75650541    -0.10800
C1823       C  0.75120947  0.73664556  0.75565870    -0.09200
C1824       C  0.74972901  0.76152721  0.74474094    -0.10800
C1825       C  0.63721547  0.87782731  0.94367444    -0.09200
C1826       C  0.61212136  0.87816997  0.93321066    -0.10800
C1827       C  0.86240473  0.87271355  0.94388361    -0.09200
C1828       C  0.88743464  0.87304315  0.93322328    -0.10800
C1829       C  0.50006193  0.87568203  0.79494781    -0.09200
C1830       C  0.50032205  0.87551138  0.76852657    -0.10800
C1831       C  0.99963713  0.87487219  0.51854627    -0.09200
C1832       C  0.00009853  0.87451926  0.54497192    -0.10800
C1833       C  0.61404496  0.87221165  0.68303673    -0.09200
C1834       C  0.63905766  0.87436391  0.69353376    -0.10800
C1835       C  0.88894627  0.87516018  0.68178276    -0.09200
C1836       C  0.86399223  0.87273827  0.69234934    -0.10800
C1837       C  0.61204374  0.62482264  0.81978813    -0.09200
C1838       C  0.63711762  0.62671297  0.80935164    -0.10800
C1839       C  0.86207410  0.62513171  0.80752321    -0.09200
C1840       C  0.88695765  0.62774045  0.81817792    -0.10800
C1841       C  0.49644327  0.98860217  0.88112129    -0.09200
C1842       C  0.99663561  0.51369025  0.87065481    -0.10800
C1843       C  0.50186197  0.73855217  0.87111892    -0.09200
C1844       C  0.00208253  0.76361906  0.88176126    -0.10800
C1845       C  0.50122546  0.62640774  0.98289641    -0.09200
C1846       C  0.50081452  0.62674622  0.95646885    -0.10800
C1847       C  0.99947626  0.62591336  0.73291459    -0.09200
C1848       C  0.99944231  0.62571079  0.70649367    -0.10800
C1849       C  0.61284172  0.62766337  0.56911078    -0.09200
C1850       C  0.63786830  0.62761653  0.55845411    -0.10800
C1851       C  0.86305240  0.62258574  0.55686671    -0.09200
C1852       C  0.88815194  0.62260157  0.56734265    -0.10800
C1853       C  0.00394453  0.51230209  0.62003432    -0.09200
C1854       C  0.50392283  0.98720287  0.63048390    -0.10800
C1855       C  0.99863380  0.76239228  0.63052068    -0.09200
C1856       C  0.49825699  0.73734044  0.61985459    -0.10800
loop_ 
_geom_bond_atom_site_label_1 
_geom_bond_atom_site_label_2 
_geom_bond_distance 
_geom_bond_site_symmetry_2 
_ccdc_geom_bond_type 
O1           C17   1.278       .  A
O1           Zn7   2.021       .  S
C2           O18   1.278   1_655  A
C2          O943   1.271       .  A
C2          C232   1.438       .  S
O3           C16   1.277       .  A
O3          Cd10   2.089       .  S
O4           C22   1.278       .  A
O4          Cd13   2.069       .  S
O5           C19   1.272       .  A
O5           Cd9   2.059       .  S
O6          C945   1.277       .  A
O6           Cd9   2.064       .  S
Zn7          O18   2.049       .  S
Zn7          O20   2.006       .  S
Zn7          O12   1.908       .  S
O8           C19   1.278       .  A
O8          Cd13   2.092       .  S
Cd9          O11   2.093       .  S
Cd9         O940   1.965       .  S
Cd10         O14   2.057       .  S
Cd10         O23   2.066       .  S
Cd10         O12   1.967       .  S
O11          C21   1.278       .  A
O12        Cd937   1.965   1_455  S
O12        Cd941   1.967   1_455  S
Cd13         O15   2.053       .  S
Cd13        O940   1.967       .  S
O14         C949   1.271       .  A
O15         C930   1.271       .  A
C16          O20   1.271       .  A
C16         C225   1.438       .  S
C17         O934   1.277   1_455  A
C17         C453   1.430   1_554  S
C19         C228   1.438       .  S
C21         O942   1.271       .  A
C21         C229   1.437       .  S
C22         O951   1.277       .  A
C22         C224   1.429       .  S
O23         C950   1.277   1_455  A
O24          C40   1.278       .  A
O24         Zn30   2.021       .  S
C25          O41   1.278       .  A
C25          O38   1.272       .  A
C25         C213   1.440       .  S
O26         C967   1.277       .  A
O26         Cd33   2.090       .  S
O27         C973   1.277   1_455  A
O27         Cd36   2.069       .  S
O28          C42   1.271       .  A
O28         Cd32   2.056       .  S
O29         C968   1.277       .  A
O29         Cd32   2.065       .  S
Zn30         O41   2.051       .  S
Zn30         O43   2.006       .  S
Zn30         O35   1.909   1_455  S
O31         C970   1.278   1_455  A
O31         Cd36   2.093       .  S
Cd32         O34   2.093       .  S
Cd32        O963   1.965       .  S
Cd33         O37   2.062       .  S
Cd33         O46   2.066       .  S
Cd33        O963   1.969       .  S
O34          C44   1.278       .  A
O35         Cd36   1.968   1_655  S
O35        Cd960   1.965       .  S
O35        Cd961   1.969       .  S
Cd36         O38   2.059       .  S
O37          C44   1.272       .  A
C39          O43   1.271       .  A
C39         O954   1.277   1_455  A
C39         C219   1.438       .  S
C40         O957   1.277   1_455  A
C40         C222   1.430       .  S
C42         O959   1.278       .  A
C42         C218   1.437       .  S
C44         C216   1.439       .  S
C45          O46   1.277       .  A
C45         O955   1.277       .  A
C45         C223   1.429       .  S
O47          C63   1.278       .  A
O47         Zn53   2.048       .  S
C48          O64   1.278       .  A
C48         O989   1.277       .  A
C48         C208   1.430       .  S
O49         C990   1.277   1_455  A
O49         Cd56   2.091       .  S
O50          C68   1.278       .  A
O50         Cd59   2.095       .  S
O51         C993   1.278       .  A
O51         Cd55   2.092       .  S
O52          C63   1.271       .  A
O52         Cd55   2.059       .  S
Zn53         O64   2.019       .  S
Zn53         O66   2.003       .  S
Zn53         O58   1.908       .  S
O54          C65   1.272       .  A
O54         Cd59   2.058       .  S
Cd55         O57   2.068       .  S
Cd55         O58   1.968       .  S
Cd56         O60   2.068       .  S
Cd56         O69   2.063       .  S
Cd56        O986   1.969       .  S
O57         C995   1.277       .  A
O58        Cd984   1.969       .  S
O58        Cd987   1.965       .  S
Cd59         O61   2.066       .  S
Cd59        O986   1.965       .  S
O60          C67   1.277       .  A
O61         C976   1.277       .  A
C62          O66   1.271       .  A
C62         O977   1.277       .  A
C62         C231   1.438       .  S
C63         C211   1.440       .  S
C65         O979   1.278   1_455  A
C65         C230   1.437       .  S
C67         O985   1.277   1_455  A
C67         C206   1.429       .  S
C68          O69   1.272       .  A
C68         C209   1.440       .  S
O70          C86   1.278       .  A
O70         Zn76   2.050       .  S
C71          O87   1.278       .  A
C71        O1012   1.277       .  A
C71         C439   1.430       .  S
O72          C85   1.277       .  A
O72         Cd79   2.091       .  S
O73          C91   1.278   1_455  A
O73         Cd82   2.092       .  S
O74          C88   1.277       .  A
O74         Cd78   2.090       .  S
O75        C1014   1.271       .  A
O75         Cd78   2.052       .  S
Zn76         O87   2.021       .  S
Zn76         O89   2.007       .  S
Zn76         O81   1.908       .  S
O77          C88   1.271       .  A
O77         Cd82   2.058       .  S
Cd78         O80   2.067       .  S
Cd78       O1009   1.966   1_455  S
Cd79         O83   2.068       .  S
Cd79         O92   2.058       .  S
Cd79         O81   1.968       .  S
O80          C90   1.277   1_455  A
O81       Cd1006   1.966       .  S
O81       Cd1010   1.965       .  S
Cd82         O84   2.064       .  S
Cd82       O1009   1.965   1_455  S
O83        C1018   1.277       .  A
O84         C999   1.277   1_455  A
C85          O89   1.271       .  A
C85         C204   1.439       .  S
C86        O1003   1.271       .  A
C86         C220   1.438       .  S
C88         C202   1.437       .  S
C90        O1011   1.277       .  A
C90         C205   1.429   1_655  S
C91        O1020   1.272       .  A
C91         C217   1.437       .  S
O92        C1019   1.272       .  A
O93         C109   1.278       .  A
O93         Zn99   2.022       .  S
C94         O110   1.278       .  A
C94         O107   1.272       .  A
C94         C210   1.440       .  S
O95         C108   1.277       .  A
O95        Cd102   2.091       .  S
O96         C114   1.277       .  A
O96        Cd105   2.069       .  S
O97         C111   1.272       .  A
O97        Cd101   2.063       .  S
O98         C109   1.277       .  A
O98        Cd101   2.065       .  S
Zn99        O110   2.052       .  S
Zn99        O112   2.009       .  S
Zn99        O104   1.910       .  S
O100        C111   1.278       .  A
O100       Cd105   2.093       .  S
Cd101       O103   2.094       .  S
Cd101       O104   1.966       .  S
Cd102       O106   2.062       .  S
Cd102       O115   2.067       .  S
Cd102       O104   1.970       .  S
O103        C113   1.278       .  A
O104       Cd105   1.967       .  S
Cd105       O107   2.058       .  S
O106        C113   1.272       .  A
C108        O112   1.271       .  A
C108        C200   1.439       .  S
C109        C194   1.430       .  S
C111        C197   1.440       .  S
C113        C212   1.440       .  S
C114        O115   1.277       .  A
C114        C195   1.429       .  S
O116        C132   1.278       .  A
O116       Zn354   2.021   1_554  S
C117        O133   1.278       .  A
C117        O130   1.271       .  A
C117        C203   1.438       .  S
O118        C131   1.277       .  A
O118       Cd125   2.088       .  S
O119        C137   1.278       .  A
O119       Cd128   2.070       .  S
O120        C134   1.272       .  A
O120       Cd124   2.062       .  S
O121        C132   1.277       .  A
O121       Cd356   2.063   1_554  S
Zn122       O133   2.052       .  S
Zn122       O135   2.011       .  S
Zn122       O348   2.021       .  S
Zn122       O127   1.911       .  S
O123        C134   1.278       .  A
O123       Cd128   2.092       .  S
Cd124       O126   2.094       .  S
Cd124       O353   2.063       .  S
Cd124       O127   1.968       .  S
Cd125       O129   2.056       .  S
Cd125       O138   2.067       .  S
Cd125       O127   1.967       .  S
O126        C136   1.278       .  A
O127       Cd128   1.966       .  S
Cd128       O130   2.053       .  S
O129        C136   1.271       .  A
C131        O135   1.272       .  A
C131        C189   1.439       .  S
C132        C196   1.429       .  S
C134        C191   1.439       .  S
C136        C201   1.437       .  S
C137        O138   1.277       .  A
C137        C193   1.430       .  S
O139        C155   1.279       .  A
O139       Zn145   2.052       .  S
C140        O156   1.278       .  A
C140        O153   1.277       .  A
C140        C185   1.429       .  S
O141        C154   1.277       .  A
O141       Cd148   2.089       .  S
O142        C160   1.278       .  A
O142       Cd151   2.094       .  S
O143        C157   1.277       .  A
O143       Cd147   2.091       .  S
O144        C155   1.271       .  A
O144       Cd147   2.053       .  S
Zn145       O158   2.011       .  S
Zn145       O388   2.021   1_554  S
Zn145       O150   1.912       .  S
O146        C157   1.272       .  A
O146       Cd151   2.063       .  S
Cd147       O149   2.069       .  S
Cd147       O150   1.966       .  S
Cd148       O152   2.068       .  S
Cd148       O161   2.056       .  S
Cd148       O150   1.968       .  S
O149        C159   1.277       .  A
O150       Cd151   1.967       .  S
Cd151       O385   2.063   1_554  S
O152        C159   1.277       .  A
O153       Cd383   2.063       .  S
C154        O158   1.272       .  A
C154        C192   1.439       .  S
C155        C227   1.438       .  S
O156       Zn377   2.021       .  S
C157        C190   1.439       .  S
C159        C188   1.430       .  S
C160        O161   1.271       .  A
C160        C226   1.438       .  S
O162        C178   1.278       .  A
O162       Zn168   2.050       .  S
C163        O179   1.278       .  A
C163        O176   1.277       .  A
C163        C187   1.430       .  S
O164        C177   1.277       .  A
O164       Cd171   2.092       .  S
O165        C183   1.279       .  A
O165       Cd174   2.096       .  S
O166        C180   1.278       .  A
O166       Cd170   2.093       .  S
O167        C178   1.271       .  A
O167       Cd170   2.057       .  S
Zn168       O179   2.020       .  S
Zn168       O181   2.009       .  S
Zn168       O173   1.910       .  S
O169        C180   1.272       .  A
O169       Cd174   2.063       .  S
Cd170       O172   2.068       .  S
Cd170       O173   1.968       .  S
Cd171       O175   2.069       .  S
Cd171       O184   2.063       .  S
Cd171       O173   1.969       .  S
O172        C182   1.278       .  A
O173       Cd174   1.967       .  S
Cd174       O176   2.066       .  S
O175        C182   1.277       .  A
C177        O181   1.271       .  A
C177        C199   1.439       .  S
C178        C215   1.439       .  S
C180        C198   1.440       .  S
C182        C186   1.429       .  S
C183        O184   1.272       .  A
C183        C214   1.440       .  S
C185        C186   1.203       .  T
C187        C188   1.203       .  T
C189        C886   1.208       .  T
C190        C885   1.208   1_544  T
C191        C424   1.209       .  T
C192        C423   1.209   1_554  T
C193        C194   1.203       .  T
C195        C196   1.203       .  T
C197        C662   1.209       .  T
C198        C661   1.209   1_545  T
C199        C200   1.209       .  T
C201        C202   1.208       .  T
C203        C204   1.208       .  T
C205        C206   1.202       .  T
C207        C303   1.430   1_554  S
C207        C208   1.203       .  T
C209        C210   1.209       .  T
C211        C212   1.209       .  T
C213        C214   1.209       .  T
C215        C216   1.209       .  T
C217       C1610   1.207       .  T
C218       C1609   1.207   1_545  T
C219       C1148   1.208       .  T
C220       C1147   1.208       .  T
C221        C249   1.430       .  S
C221        C222   1.203       .  T
C223        C224   1.202       .  T
C225        C226   1.208       .  T
C227        C228   1.208       .  T
C229       C1622   1.208   1_545  T
C230       C1621   1.208       .  T
C231       C1160   1.208       .  T
C232       C1159   1.208       .  T
O233        C249   1.278       .  A
O233       Zn239   2.021       .  S
C234        O250   1.278   1_655  A
C234       O1175   1.271       .  A
C234        C464   1.438       .  S
O235        C248   1.277       .  A
O235       Cd242   2.089       .  S
O236        C254   1.278       .  A
O236       Cd245   2.069       .  S
O237        C251   1.272       .  A
O237       Cd241   2.059       .  S
O238       C1177   1.277       .  A
O238       Cd241   2.064       .  S
Zn239       O250   2.049       .  S
Zn239       O252   2.006       .  S
Zn239       O244   1.908       .  S
O240        C251   1.278       .  A
O240       Cd245   2.092       .  S
Cd241       O243   2.093       .  S
Cd241      O1172   1.965       .  S
Cd242       O246   2.057       .  S
Cd242       O255   2.066       .  S
Cd242       O244   1.967       .  S
O243        C253   1.278       .  A
O244      Cd1169   1.965   1_455  S
O244      Cd1173   1.967   1_455  S
Cd245       O247   2.053       .  S
Cd245      O1172   1.967       .  S
O246       C1181   1.271       .  A
O247       C1162   1.271       .  A
C248        O252   1.271       .  A
C248        C457   1.438       .  S
C249       O1166   1.277   1_455  A
C251        C460   1.438       .  S
C253       O1174   1.271       .  A
C253        C461   1.437       .  S
C254       O1183   1.277       .  A
C254        C456   1.429       .  S
O255       C1182   1.277   1_455  A
O256        C272   1.278       .  A
O256       Zn262   2.021       .  S
C257        O273   1.278       .  A
C257        O270   1.272       .  A
C257        C445   1.440       .  S
O258       C1199   1.277       .  A
O258       Cd265   2.090       .  S
O259       C1205   1.277   1_455  A
O259       Cd268   2.069       .  S
O260        C274   1.271       .  A
O260       Cd264   2.056       .  S
O261       C1200   1.277       .  A
O261       Cd264   2.065       .  S
Zn262       O273   2.051       .  S
Zn262       O275   2.006       .  S
Zn262       O267   1.909   1_455  S
O263       C1202   1.278   1_455  A
O263       Cd268   2.093       .  S
Cd264       O266   2.093       .  S
Cd264      O1195   1.965       .  S
Cd265       O269   2.062       .  S
Cd265       O278   2.066       .  S
Cd265      O1195   1.969       .  S
O266        C276   1.278       .  A
O267      Cd1192   1.965       .  S
O267      Cd1193   1.969       .  S
O267       Cd268   1.968   1_655  S
Cd268       O270   2.059       .  S
O269        C276   1.272       .  A
C271       O1186   1.277   1_455  A
C271        O275   1.271       .  A
C271        C451   1.438       .  S
C272       O1189   1.277   1_455  A
C272        C454   1.430       .  S
C274       O1191   1.278       .  A
C274        C450   1.437       .  S
C276        C448   1.439       .  S
C277       O1187   1.277       .  A
C277        O278   1.277       .  A
C277        C455   1.429       .  S
O279        C295   1.278       .  A
O279       Zn285   2.048       .  S
C280        O296   1.278       .  A
C280       O1221   1.277       .  A
C280        C440   1.430       .  S
O281       C1222   1.277   1_455  A
O281       Cd288   2.091       .  S
O282        C300   1.278       .  A
O282       Cd291   2.095       .  S
O283       C1225   1.278       .  A
O283       Cd287   2.092       .  S
O284        C295   1.271       .  A
O284       Cd287   2.059       .  S
Zn285       O296   2.019       .  S
Zn285       O298   2.003       .  S
Zn285       O290   1.908       .  S
O286        C297   1.272       .  A
O286       Cd291   2.058       .  S
Cd287       O289   2.068       .  S
Cd287       O290   1.968       .  S
Cd288       O292   2.068       .  S
Cd288       O301   2.063       .  S
Cd288      O1218   1.969       .  S
O289       C1227   1.277       .  A
O290      Cd1216   1.969       .  S
O290      Cd1219   1.965       .  S
Cd291       O293   2.066       .  S
Cd291      O1218   1.965       .  S
O292        C299   1.277       .  A
O293       C1208   1.277       .  A
C294       O1209   1.277       .  A
C294        O298   1.271       .  A
C294        C463   1.438       .  S
C295        C443   1.440       .  S
C297       O1211   1.278   1_455  A
C297        C462   1.437       .  S
C299       O1217   1.277   1_455  A
C299        C438   1.429       .  S
C300        O301   1.272       .  A
C300        C441   1.440       .  S
O302        C318   1.278       .  A
O302       Zn308   2.050       .  S
C303        O319   1.278       .  A
C303       O1244   1.277       .  A
O304        C317   1.277       .  A
O304       Cd311   2.091       .  S
O305        C323   1.278   1_455  A
O305       Cd314   2.092       .  S
O306        C320   1.277       .  A
O306       Cd310   2.090       .  S
O307       C1246   1.271       .  A
O307       Cd310   2.052       .  S
Zn308       O319   2.021       .  S
Zn308       O321   2.007       .  S
Zn308       O313   1.908       .  S
O309        C320   1.271       .  A
O309       Cd314   2.058       .  S
Cd310       O312   2.067       .  S
Cd310      O1241   1.966   1_455  S
Cd311       O315   2.068       .  S
Cd311       O324   2.058       .  S
Cd311       O313   1.968       .  S
O312        C322   1.277   1_455  A
O313      Cd1238   1.966       .  S
O313      Cd1242   1.965       .  S
Cd314       O316   2.064       .  S
Cd314      O1241   1.965   1_455  S
O315       C1250   1.277       .  A
O316       C1231   1.277   1_455  A
C317        O321   1.271       .  A
C317        C436   1.439       .  S
C318       O1235   1.271       .  A
C318        C452   1.438       .  S
C320        C434   1.437       .  S
C322       O1243   1.277       .  A
C322        C437   1.429   1_655  S
C323       O1252   1.272       .  A
C323        C449   1.437       .  S
O324       C1251   1.272       .  A
O325        C341   1.278       .  A
O325       Zn331   2.022       .  S
C326        O342   1.278       .  A
C326        O339   1.272       .  A
C326        C442   1.440       .  S
O327        C340   1.277       .  A
O327       Cd334   2.091       .  S
O328        C346   1.277       .  A
O328       Cd337   2.069       .  S
O329        C343   1.272       .  A
O329       Cd333   2.063       .  S
O330        C341   1.277       .  A
O330       Cd333   2.065       .  S
Zn331       O342   2.052       .  S
Zn331       O344   2.009       .  S
Zn331       O336   1.910       .  S
O332        C343   1.278       .  A
O332       Cd337   2.093       .  S
Cd333       O335   2.094       .  S
Cd333       O336   1.966       .  S
Cd334       O338   2.062       .  S
Cd334       O347   2.067       .  S
Cd334       O336   1.970       .  S
O335        C345   1.278       .  A
O336       Cd337   1.967       .  S
Cd337       O339   2.058       .  S
O338        C345   1.272       .  A
C340        O344   1.271       .  A
C340        C432   1.439       .  S
C341        C426   1.430       .  S
C343        C429   1.440       .  S
C345        C444   1.440       .  S
C346        O347   1.277       .  A
C346        C427   1.429       .  S
O348        C364   1.278       .  A
C349        O365   1.278       .  A
C349        O362   1.271       .  A
C349        C435   1.438       .  S
O350        C363   1.277       .  A
O350       Cd357   2.088       .  S
O351        C369   1.278       .  A
O351       Cd360   2.070       .  S
O352        C366   1.272       .  A
O352       Cd356   2.062       .  S
O353        C364   1.277       .  A
Zn354       O365   2.052       .  S
Zn354       O367   2.011       .  S
Zn354       O359   1.911       .  S
O355        C366   1.278       .  A
O355       Cd360   2.092       .  S
Cd356       O358   2.094       .  S
Cd356       O359   1.968       .  S
Cd357       O361   2.056       .  S
Cd357       O370   2.067       .  S
Cd357       O359   1.967       .  S
O358        C368   1.278       .  A
O359       Cd360   1.966       .  S
Cd360       O362   2.053       .  S
O361        C368   1.271       .  A
C363        O367   1.272       .  A
C363        C421   1.439       .  S
C364        C428   1.429       .  S
C366        C423   1.439       .  S
C368        C433   1.437       .  S
C369        O370   1.277       .  A
C369        C425   1.430       .  S
O371        C387   1.279       .  A
O371       Zn377   2.052       .  S
C372        O388   1.278       .  A
C372        O385   1.277       .  A
C372        C417   1.429       .  S
O373        C386   1.277       .  A
O373       Cd380   2.089       .  S
O374        C392   1.278       .  A
O374       Cd383   2.094       .  S
O375        C389   1.277       .  A
O375       Cd379   2.091       .  S
O376        C387   1.271       .  A
O376       Cd379   2.053       .  S
Zn377       O390   2.011       .  S
Zn377       O382   1.912       .  S
O378        C389   1.272       .  A
O378       Cd383   2.063       .  S
Cd379       O381   2.069       .  S
Cd379       O382   1.966       .  S
Cd380       O384   2.068       .  S
Cd380       O393   2.056       .  S
Cd380       O382   1.968       .  S
O381        C391   1.277       .  A
O382       Cd383   1.967       .  S
O384        C391   1.277       .  A
C386        O390   1.272       .  A
C386        C424   1.439       .  S
C387        C459   1.438       .  S
C389        C422   1.439       .  S
C391        C420   1.430       .  S
C392        O393   1.271       .  A
C392        C458   1.438       .  S
O394        C410   1.278       .  A
O394       Zn400   2.050       .  S
C395        O411   1.278       .  A
C395        O408   1.277       .  A
C395        C419   1.430       .  S
O396        C409   1.277       .  A
O396       Cd403   2.092       .  S
O397        C415   1.279       .  A
O397       Cd406   2.096       .  S
O398        C412   1.278       .  A
O398       Cd402   2.093       .  S
O399        C410   1.271       .  A
O399       Cd402   2.057       .  S
Zn400       O411   2.020       .  S
Zn400       O413   2.009       .  S
Zn400       O405   1.910       .  S
O401        C412   1.272       .  A
O401       Cd406   2.063       .  S
Cd402       O404   2.068       .  S
Cd402       O405   1.968       .  S
Cd403       O407   2.069       .  S
Cd403       O416   2.063       .  S
Cd403       O405   1.969       .  S
O404        C414   1.278       .  A
O405       Cd406   1.967       .  S
Cd406       O408   2.066       .  S
O407        C414   1.277       .  A
C409        O413   1.271       .  A
C409        C431   1.439       .  S
C410        C447   1.439       .  S
C412        C430   1.440       .  S
C414        C418   1.429       .  S
C415        O416   1.272       .  A
C415        C446   1.440       .  S
C417        C418   1.203       .  T
C419        C420   1.203       .  T
C421        C654   1.208   1_556  T
C422        C653   1.208   1_545  T
C425        C426   1.203       .  T
C427        C428   1.203       .  T
C429        C894   1.209       .  T
C430        C893   1.209   1_545  T
C431        C432   1.209       .  T
C433        C434   1.208       .  T
C435        C436   1.208       .  T
C437        C438   1.202       .  T
C439        C440   1.203       .  T
C441        C442   1.209       .  T
C443        C444   1.209       .  T
C445        C446   1.209       .  T
C447        C448   1.209       .  T
C449       C1842   1.207       .  T
C450       C1841   1.207   1_545  T
C451       C1380   1.208       .  T
C452       C1379   1.208       .  T
C453        C454   1.203       .  T
C455        C456   1.202       .  T
C457        C458   1.208       .  T
C459        C460   1.208       .  T
C461       C1854   1.208   1_545  T
C462       C1853   1.208       .  T
C463       C1392   1.208       .  T
C464       C1391   1.208       .  T
O465        C481   1.278       .  A
O465       Zn471   2.021       .  S
C466        O482   1.278   1_655  A
C466       O1407   1.271       .  A
C466        C696   1.438       .  S
O467        C480   1.277       .  A
O467       Cd474   2.089       .  S
O468        C486   1.278       .  A
O468       Cd477   2.069       .  S
O469        C483   1.272       .  A
O469       Cd473   2.059       .  S
O470       C1409   1.277       .  A
O470       Cd473   2.064       .  S
Zn471       O482   2.049       .  S
Zn471       O484   2.006       .  S
Zn471       O476   1.908       .  S
O472        C483   1.278       .  A
O472       Cd477   2.092       .  S
Cd473       O475   2.093       .  S
Cd473      O1404   1.965       .  S
Cd474       O478   2.057       .  S
Cd474       O487   2.066       .  S
Cd474       O476   1.967       .  S
O475        C485   1.278       .  A
O476      Cd1401   1.965   1_455  S
O476      Cd1405   1.967   1_455  S
Cd477       O479   2.053       .  S
Cd477      O1404   1.967       .  S
O478       C1413   1.271       .  A
O479       C1394   1.271       .  A
C480        O484   1.271       .  A
C480        C689   1.438       .  S
C481       O1398   1.277   1_455  A
C481        C917   1.430   1_554  S
C483        C692   1.438       .  S
C485       O1406   1.271       .  A
C485        C693   1.437       .  S
C486       O1415   1.277       .  A
C486        C688   1.429       .  S
O487       C1414   1.277   1_455  A
O488        C504   1.278       .  A
O488       Zn494   2.021       .  S
C489        O505   1.278       .  A
C489        O502   1.272       .  A
C489        C677   1.440       .  S
O490       C1431   1.277       .  A
O490       Cd497   2.090       .  S
O491       C1437   1.277   1_455  A
O491       Cd500   2.069       .  S
O492        C506   1.271       .  A
O492       Cd496   2.056       .  S
O493       C1432   1.277       .  A
O493       Cd496   2.065       .  S
Zn494       O505   2.051       .  S
Zn494       O507   2.006       .  S
Zn494       O499   1.909   1_455  S
O495       C1434   1.278   1_455  A
O495       Cd500   2.093       .  S
Cd496       O498   2.093       .  S
Cd496      O1427   1.965       .  S
Cd497       O501   2.062       .  S
Cd497       O510   2.066       .  S
Cd497      O1427   1.969       .  S
O498        C508   1.278       .  A
O499      Cd1424   1.965       .  S
O499      Cd1425   1.969       .  S
O499       Cd500   1.968   1_655  S
Cd500       O502   2.059       .  S
O501        C508   1.272       .  A
C503       O1418   1.277   1_455  A
C503        O507   1.271       .  A
C503        C683   1.438       .  S
C504       O1421   1.277   1_455  A
C504        C686   1.430       .  S
C506       O1423   1.278       .  A
C506        C682   1.437       .  S
C508        C680   1.439       .  S
C509       O1419   1.277       .  A
C509        O510   1.277       .  A
C509        C687   1.429       .  S
O511        C527   1.278       .  A
O511       Zn517   2.048       .  S
C512        O528   1.278       .  A
C512       O1453   1.277       .  A
C512        C672   1.430       .  S
O513       C1454   1.277   1_455  A
O513       Cd520   2.091       .  S
O514        C532   1.278       .  A
O514       Cd523   2.095       .  S
O515       C1457   1.278       .  A
O515       Cd519   2.092       .  S
O516        C527   1.271       .  A
O516       Cd519   2.059       .  S
Zn517       O528   2.019       .  S
Zn517       O530   2.003       .  S
Zn517       O522   1.908       .  S
O518        C529   1.272       .  A
O518       Cd523   2.058       .  S
Cd519       O521   2.068       .  S
Cd519       O522   1.968       .  S
Cd520       O524   2.068       .  S
Cd520       O533   2.063       .  S
Cd520      O1450   1.969       .  S
O521       C1459   1.277       .  A
O522      Cd1448   1.969       .  S
O522      Cd1451   1.965       .  S
Cd523       O525   2.066       .  S
Cd523      O1450   1.965       .  S
O524        C531   1.277       .  A
O525       C1440   1.277       .  A
C526       O1441   1.277       .  A
C526        O530   1.271       .  A
C526        C695   1.438       .  S
C527        C675   1.440       .  S
C529       O1443   1.278   1_455  A
C529        C694   1.437       .  S
C531       O1449   1.277   1_455  A
C531        C670   1.429       .  S
C532        O533   1.272       .  A
C532        C673   1.440       .  S
O534        C550   1.278       .  A
O534       Zn540   2.050       .  S
C535        O551   1.278       .  A
C535       O1476   1.277       .  A
C535        C903   1.430       .  S
O536        C549   1.277       .  A
O536       Cd543   2.091       .  S
O537        C555   1.278   1_455  A
O537       Cd546   2.092       .  S
O538        C552   1.277       .  A
O538       Cd542   2.090       .  S
O539       C1478   1.271       .  A
O539       Cd542   2.052       .  S
Zn540       O551   2.021       .  S
Zn540       O553   2.007       .  S
Zn540       O545   1.908       .  S
O541        C552   1.271       .  A
O541       Cd546   2.058       .  S
Cd542       O544   2.067       .  S
Cd542      O1473   1.966   1_455  S
Cd543       O547   2.068       .  S
Cd543       O556   2.058       .  S
Cd543       O545   1.968       .  S
O544        C554   1.277   1_455  A
O545      Cd1470   1.966       .  S
O545      Cd1474   1.965       .  S
Cd546       O548   2.064       .  S
Cd546      O1473   1.965   1_455  S
O547       C1482   1.277       .  A
O548       C1463   1.277   1_455  A
C549        O553   1.271       .  A
C549        C668   1.439       .  S
C550       O1467   1.271       .  A
C550        C684   1.438       .  S
C552        C666   1.437       .  S
C554       O1475   1.277       .  A
C554        C669   1.429   1_655  S
C555       O1484   1.272       .  A
C555        C681   1.437       .  S
O556       C1483   1.272       .  A
O557        C573   1.278       .  A
O557       Zn563   2.022       .  S
C558        O574   1.278       .  A
C558        O571   1.272       .  A
C558        C674   1.440       .  S
O559        C572   1.277       .  A
O559       Cd566   2.091       .  S
O560        C578   1.277       .  A
O560       Cd569   2.069       .  S
O561        C575   1.272       .  A
O561       Cd565   2.063       .  S
O562        C573   1.277       .  A
O562       Cd565   2.065       .  S
Zn563       O574   2.052       .  S
Zn563       O576   2.009       .  S
Zn563       O568   1.910       .  S
O564        C575   1.278       .  A
O564       Cd569   2.093       .  S
Cd565       O567   2.094       .  S
Cd565       O568   1.966       .  S
Cd566       O570   2.062       .  S
Cd566       O579   2.067       .  S
Cd566       O568   1.970       .  S
O567        C577   1.278       .  A
O568       Cd569   1.967       .  S
Cd569       O571   2.058       .  S
O570        C577   1.272       .  A
C572        O576   1.271       .  A
C572        C664   1.439       .  S
C573        C658   1.430       .  S
C575        C661   1.440       .  S
C577        C676   1.440       .  S
C578        O579   1.277       .  A
C578        C659   1.429       .  S
O580        C596   1.278       .  A
O580       Zn818   2.021   1_554  S
C581        O597   1.278       .  A
C581        O594   1.271       .  A
C581        C667   1.438       .  S
O582        C595   1.277       .  A
O582       Cd589   2.088       .  S
O583        C601   1.278       .  A
O583       Cd592   2.070       .  S
O584        C598   1.272       .  A
O584       Cd588   2.062       .  S
O585        C596   1.277       .  A
O585       Cd820   2.063   1_554  S
Zn586       O812   2.021       .  S
Zn586       O597   2.052       .  S
Zn586       O599   2.011       .  S
Zn586       O591   1.911       .  S
O587        C598   1.278       .  A
O587       Cd592   2.092       .  S
Cd588       O817   2.063       .  S
Cd588       O590   2.094       .  S
Cd588       O591   1.968       .  S
Cd589       O593   2.056       .  S
Cd589       O602   2.067       .  S
Cd589       O591   1.967       .  S
O590        C600   1.278       .  A
O591       Cd592   1.966       .  S
Cd592       O594   2.053       .  S
O593        C600   1.271       .  A
C595        O599   1.272       .  A
C595        C653   1.439       .  S
C596        C660   1.429       .  S
C598        C655   1.439       .  S
C600        C665   1.437       .  S
C601        O602   1.277       .  A
C601        C657   1.430       .  S
O603        C619   1.279       .  A
O603       Zn609   2.052       .  S
C604        O620   1.278       .  A
C604        O617   1.277       .  A
C604        C649   1.429       .  S
O605        C618   1.277       .  A
O605       Cd612   2.089       .  S
O606        C624   1.278       .  A
O606       Cd615   2.094       .  S
O607        C621   1.277       .  A
O607       Cd611   2.091       .  S
O608        C619   1.271       .  A
O608       Cd611   2.053       .  S
Zn609       O852   2.021   1_554  S
Zn609       O622   2.011       .  S
Zn609       O614   1.912       .  S
O610        C621   1.272       .  A
O610       Cd615   2.063       .  S
Cd611       O613   2.069       .  S
Cd611       O614   1.966       .  S
Cd612       O616   2.068       .  S
Cd612       O625   2.056       .  S
Cd612       O614   1.968       .  S
O613        C623   1.277       .  A
O614       Cd615   1.967       .  S
Cd615       O849   2.063   1_554  S
O616        C623   1.277       .  A
O617       Cd847   2.063       .  S
C618        O622   1.272       .  A
C618        C656   1.439       .  S
C619        C691   1.438       .  S
O620       Zn841   2.021       .  S
C621        C654   1.439       .  S
C623        C652   1.430       .  S
C624        O625   1.271       .  A
C624        C690   1.438       .  S
O626        C642   1.278       .  A
O626       Zn632   2.050       .  S
C627        O643   1.278       .  A
C627        O640   1.277       .  A
C627        C651   1.430       .  S
O628        C641   1.277       .  A
O628       Cd635   2.092       .  S
O629        C647   1.279       .  A
O629       Cd638   2.096       .  S
O630        C644   1.278       .  A
O630       Cd634   2.093       .  S
O631        C642   1.271       .  A
O631       Cd634   2.057       .  S
Zn632       O643   2.020       .  S
Zn632       O645   2.009       .  S
Zn632       O637   1.910       .  S
O633        C644   1.272       .  A
O633       Cd638   2.063       .  S
Cd634       O636   2.068       .  S
Cd634       O637   1.968       .  S
Cd635       O639   2.069       .  S
Cd635       O648   2.063       .  S
Cd635       O637   1.969       .  S
O636        C646   1.278       .  A
O637       Cd638   1.967       .  S
Cd638       O640   2.066       .  S
O639        C646   1.277       .  A
C641        O645   1.271       .  A
C641        C663   1.439       .  S
C642        C679   1.439       .  S
C644        C662   1.440       .  S
C646        C650   1.429       .  S
C647        O648   1.272       .  A
C647        C678   1.440       .  S
C649        C650   1.203       .  T
C651        C652   1.203       .  T
C655        C888   1.209       .  T
C656        C887   1.209   1_554  T
C657        C658   1.203       .  T
C659        C660   1.203       .  T
C663        C664   1.209       .  T
C665        C666   1.208       .  T
C667        C668   1.208       .  T
C669        C670   1.202       .  T
C671        C767   1.430   1_554  S
C671        C672   1.203       .  T
C673        C674   1.209       .  T
C675        C676   1.209       .  T
C677        C678   1.209       .  T
C679        C680   1.209       .  T
C681       C1146   1.207   1_565  T
C682       C1145   1.207       .  T
C683       C1612   1.208       .  T
C684       C1611   1.208       .  T
C685        C713   1.430       .  S
C685        C686   1.203       .  T
C687        C688   1.202       .  T
C689        C690   1.208       .  T
C691        C692   1.208       .  T
C693       C1158   1.208       .  T
C694       C1157   1.208   1_565  T
C695       C1624   1.208       .  T
C696       C1623   1.208       .  T
O697        C713   1.278       .  A
O697       Zn703   2.021       .  S
C698        O714   1.278   1_655  A
C698       O1639   1.271       .  A
C698        C928   1.438       .  S
O699        C712   1.277       .  A
O699       Cd706   2.089       .  S
O700        C718   1.278       .  A
O700       Cd709   2.069       .  S
O701        C715   1.272       .  A
O701       Cd705   2.059       .  S
O702       C1641   1.277       .  A
O702       Cd705   2.064       .  S
Zn703       O714   2.049       .  S
Zn703       O716   2.006       .  S
Zn703       O708   1.908       .  S
O704        C715   1.278       .  A
O704       Cd709   2.092       .  S
Cd705       O707   2.093       .  S
Cd705      O1636   1.965       .  S
Cd706       O710   2.057       .  S
Cd706       O719   2.066       .  S
Cd706       O708   1.967       .  S
O707        C717   1.278       .  A
O708      Cd1633   1.965   1_455  S
O708      Cd1637   1.967   1_455  S
Cd709       O711   2.053       .  S
Cd709      O1636   1.967       .  S
O710       C1645   1.271       .  A
O711       C1626   1.271       .  A
C712        O716   1.271       .  A
C712        C921   1.438       .  S
C713       O1630   1.277   1_455  A
C715        C924   1.438       .  S
C717       O1638   1.271       .  A
C717        C925   1.437       .  S
C718       O1647   1.277       .  A
C718        C920   1.429       .  S
O719       C1646   1.277   1_455  A
O720        C736   1.278       .  A
O720       Zn726   2.021       .  S
C721        O737   1.278       .  A
C721        O734   1.272       .  A
C721        C909   1.440       .  S
O722       C1663   1.277       .  A
O722       Cd729   2.090       .  S
O723       C1669   1.277   1_455  A
O723       Cd732   2.069       .  S
O724        C738   1.271       .  A
O724       Cd728   2.056       .  S
O725       C1664   1.277       .  A
O725       Cd728   2.065       .  S
Zn726       O737   2.051       .  S
Zn726       O739   2.006       .  S
Zn726       O731   1.909   1_455  S
O727       C1666   1.278   1_455  A
O727       Cd732   2.093       .  S
Cd728       O730   2.093       .  S
Cd728      O1659   1.965       .  S
Cd729       O733   2.062       .  S
Cd729       O742   2.066       .  S
Cd729      O1659   1.969       .  S
O730        C740   1.278       .  A
O731      Cd1656   1.965       .  S
O731      Cd1657   1.969       .  S
O731       Cd732   1.968   1_655  S
Cd732       O734   2.059       .  S
O733        C740   1.272       .  A
C735       O1650   1.277   1_455  A
C735        O739   1.271       .  A
C735        C915   1.438       .  S
C736       O1653   1.277   1_455  A
C736        C918   1.430       .  S
C738       O1655   1.278       .  A
C738        C914   1.437       .  S
C740        C912   1.439       .  S
C741       O1651   1.277       .  A
C741        O742   1.277       .  A
C741        C919   1.429       .  S
O743        C759   1.278       .  A
O743       Zn749   2.048       .  S
C744        O760   1.278       .  A
C744       O1685   1.277       .  A
C744        C904   1.430       .  S
O745       C1686   1.277   1_455  A
O745       Cd752   2.091       .  S
O746        C764   1.278       .  A
O746       Cd755   2.095       .  S
O747       C1689   1.278       .  A
O747       Cd751   2.092       .  S
O748        C759   1.271       .  A
O748       Cd751   2.059       .  S
Zn749       O760   2.019       .  S
Zn749       O762   2.003       .  S
Zn749       O754   1.908       .  S
O750        C761   1.272       .  A
O750       Cd755   2.058       .  S
Cd751       O753   2.068       .  S
Cd751       O754   1.968       .  S
Cd752       O756   2.068       .  S
Cd752       O765   2.063       .  S
Cd752      O1682   1.969       .  S
O753       C1691   1.277       .  A
O754      Cd1680   1.969       .  S
O754      Cd1683   1.965       .  S
Cd755       O757   2.066       .  S
Cd755      O1682   1.965       .  S
O756        C763   1.277       .  A
O757       C1672   1.277       .  A
C758       O1673   1.277       .  A
C758        O762   1.271       .  A
C758        C927   1.438       .  S
C759        C907   1.440       .  S
C761       O1675   1.278   1_455  A
C761        C926   1.437       .  S
C763       O1681   1.277   1_455  A
C763        C902   1.429       .  S
C764        O765   1.272       .  A
C764        C905   1.440       .  S
O766        C782   1.278       .  A
O766       Zn772   2.050       .  S
C767        O783   1.278       .  A
C767       O1708   1.277       .  A
O768        C781   1.277       .  A
O768       Cd775   2.091       .  S
O769        C787   1.278   1_455  A
O769       Cd778   2.092       .  S
O770        C784   1.277       .  A
O770       Cd774   2.090       .  S
O771       C1710   1.271       .  A
O771       Cd774   2.052       .  S
Zn772       O783   2.021       .  S
Zn772       O785   2.007       .  S
Zn772       O777   1.908       .  S
O773        C784   1.271       .  A
O773       Cd778   2.058       .  S
Cd774       O776   2.067       .  S
Cd774      O1705   1.966   1_455  S
Cd775       O779   2.068       .  S
Cd775       O788   2.058       .  S
Cd775       O777   1.968       .  S
O776        C786   1.277   1_455  A
O777      Cd1702   1.966       .  S
O777      Cd1706   1.965       .  S
Cd778       O780   2.064       .  S
Cd778      O1705   1.965   1_455  S
O779       C1714   1.277       .  A
O780       C1695   1.277   1_455  A
C781        O785   1.271       .  A
C781        C900   1.439       .  S
C782       O1699   1.271       .  A
C782        C916   1.438       .  S
C784        C898   1.437       .  S
C786       O1707   1.277       .  A
C786        C901   1.429   1_655  S
C787       O1716   1.272       .  A
C787        C913   1.437       .  S
O788       C1715   1.272       .  A
O789        C805   1.278       .  A
O789       Zn795   2.022       .  S
C790        O806   1.278       .  A
C790        O803   1.272       .  A
C790        C906   1.440       .  S
O791        C804   1.277       .  A
O791       Cd798   2.091       .  S
O792        C810   1.277       .  A
O792       Cd801   2.069       .  S
O793        C807   1.272       .  A
O793       Cd797   2.063       .  S
O794        C805   1.277       .  A
O794       Cd797   2.065       .  S
Zn795       O806   2.052       .  S
Zn795       O808   2.009       .  S
Zn795       O800   1.910       .  S
O796        C807   1.278       .  A
O796       Cd801   2.093       .  S
Cd797       O799   2.094       .  S
Cd797       O800   1.966       .  S
Cd798       O802   2.062       .  S
Cd798       O811   2.067       .  S
Cd798       O800   1.970       .  S
O799        C809   1.278       .  A
O800       Cd801   1.967       .  S
Cd801       O803   2.058       .  S
O802        C809   1.272       .  A
C804        O808   1.271       .  A
C804        C896   1.439       .  S
C805        C890   1.430       .  S
C807        C893   1.440       .  S
C809        C908   1.440       .  S
C810        O811   1.277       .  A
C810        C891   1.429       .  S
O812        C828   1.278       .  A
C813        O829   1.278       .  A
C813        O826   1.271       .  A
C813        C899   1.438       .  S
O814        C827   1.277       .  A
O814       Cd821   2.088       .  S
O815        C833   1.278       .  A
O815       Cd824   2.070       .  S
O816        C830   1.272       .  A
O816       Cd820   2.062       .  S
O817        C828   1.277       .  A
Zn818       O829   2.052       .  S
Zn818       O831   2.011       .  S
Zn818       O823   1.911       .  S
O819        C830   1.278       .  A
O819       Cd824   2.092       .  S
Cd820       O822   2.094       .  S
Cd820       O823   1.968       .  S
Cd821       O825   2.056       .  S
Cd821       O834   2.067       .  S
Cd821       O823   1.967       .  S
O822        C832   1.278       .  A
O823       Cd824   1.966       .  S
Cd824       O826   2.053       .  S
O825        C832   1.271       .  A
C827        O831   1.272       .  A
C827        C885   1.439       .  S
C828        C892   1.429       .  S
C830        C887   1.439       .  S
C832        C897   1.437       .  S
C833        O834   1.277       .  A
C833        C889   1.430       .  S
O835        C851   1.279       .  A
O835       Zn841   2.052       .  S
C836        O852   1.278       .  A
C836        O849   1.277       .  A
C836        C881   1.429       .  S
O837        C850   1.277       .  A
O837       Cd844   2.089       .  S
O838        C856   1.278       .  A
O838       Cd847   2.094       .  S
O839        C853   1.277       .  A
O839       Cd843   2.091       .  S
O840        C851   1.271       .  A
O840       Cd843   2.053       .  S
Zn841       O854   2.011       .  S
Zn841       O846   1.912       .  S
O842        C853   1.272       .  A
O842       Cd847   2.063       .  S
Cd843       O845   2.069       .  S
Cd843       O846   1.966       .  S
Cd844       O848   2.068       .  S
Cd844       O857   2.056       .  S
Cd844       O846   1.968       .  S
O845        C855   1.277       .  A
O846       Cd847   1.967       .  S
O848        C855   1.277       .  A
C850        O854   1.272       .  A
C850        C888   1.439       .  S
C851        C923   1.438       .  S
C853        C886   1.439       .  S
C855        C884   1.430       .  S
C856        O857   1.271       .  A
C856        C922   1.438       .  S
O858        C874   1.278       .  A
O858       Zn864   2.050       .  S
C859        O875   1.278       .  A
C859        O872   1.277       .  A
C859        C883   1.430       .  S
O860        C873   1.277       .  A
O860       Cd867   2.092       .  S
O861        C879   1.279       .  A
O861       Cd870   2.096       .  S
O862        C876   1.278       .  A
O862       Cd866   2.093       .  S
O863        C874   1.271       .  A
O863       Cd866   2.057       .  S
Zn864       O875   2.020       .  S
Zn864       O877   2.009       .  S
Zn864       O869   1.910       .  S
O865        C876   1.272       .  A
O865       Cd870   2.063       .  S
Cd866       O868   2.068       .  S
Cd866       O869   1.968       .  S
Cd867       O871   2.069       .  S
Cd867       O880   2.063       .  S
Cd867       O869   1.969       .  S
O868        C878   1.278       .  A
O869       Cd870   1.967       .  S
Cd870       O872   2.066       .  S
O871        C878   1.278       .  A
C873        O877   1.271       .  A
C873        C895   1.439       .  S
C874        C911   1.439       .  S
C876        C894   1.440       .  S
C878        C882   1.429       .  S
C879        O880   1.272       .  A
C879        C910   1.440       .  S
C881        C882   1.203       .  T
C883        C884   1.203       .  T
C889        C890   1.203       .  T
C891        C892   1.203       .  T
C895        C896   1.209       .  T
C897        C898   1.208       .  T
C899        C900   1.208       .  T
C901        C902   1.202       .  T
C903        C904   1.203       .  T
C905        C906   1.209       .  T
C907        C908   1.209       .  T
C909        C910   1.209       .  T
C911        C912   1.209       .  T
C913       C1378   1.207   1_565  T
C914       C1377   1.207       .  T
C915       C1844   1.208       .  T
C916       C1843   1.208       .  T
C917        C918   1.203       .  T
C919        C920   1.202       .  T
C921        C922   1.208       .  T
C923        C924   1.208       .  T
C925       C1390   1.208       .  T
C926       C1389   1.208   1_565  T
C927       C1856   1.208       .  T
C928       C1855   1.208       .  T
O929        C945   1.278       .  A
O929       Zn935   2.021       .  S
C930        O946   1.278       .  A
C930       C1160   1.438       .  S
O931        C944   1.277       .  A
O931       Cd938   2.089       .  S
O932        C950   1.278       .  A
O932       Cd941   2.069       .  S
O933        C947   1.272       .  A
O933       Cd937   2.059       .  S
O934       Cd937   2.064       .  S
Zn935       O946   2.049       .  S
Zn935       O948   2.006       .  S
Zn935       O940   1.908       .  S
O936        C947   1.278       .  A
O936       Cd941   2.092       .  S
Cd937       O939   2.093       .  S
Cd938       O942   2.057       .  S
Cd938       O951   2.066       .  S
Cd938       O940   1.967       .  S
O939        C949   1.278   1_655  A
Cd941       O943   2.053       .  S
C944        O948   1.271       .  A
C944       C1153   1.438       .  S
C945       C1381   1.430   1_554  S
C947       C1156   1.438       .  S
C949       C1157   1.437       .  S
C950       C1152   1.429       .  S
O952        C968   1.278       .  A
O952       Zn958   2.021       .  S
C953        O969   1.278       .  A
C953        O966   1.272       .  A
C953       C1141   1.440       .  S
O954       Cd961   2.090       .  S
O955       Cd964   2.069       .  S
O956        C970   1.271       .  A
O956       Cd960   2.056       .  S
O957       Cd960   2.065       .  S
Zn958       O969   2.051       .  S
Zn958       O971   2.006       .  S
Zn958       O963   1.909       .  S
O959       Cd964   2.093       .  S
Cd960       O962   2.093       .  S
Cd961       O965   2.062       .  S
Cd961       O974   2.066       .  S
O962        C972   1.278       .  A
O963       Cd964   1.968       .  S
Cd964       O966   2.059       .  S
O965        C972   1.272       .  A
C967        O971   1.271       .  A
C967       C1147   1.438       .  S
C968       C1150   1.430       .  S
C970       C1146   1.437       .  S
C972       C1144   1.439       .  S
C973        O974   1.277       .  A
C973       C1151   1.429       .  S
O975        C991   1.278       .  A
O975       Zn981   2.048       .  S
C976        O992   1.278   1_455  A
C976       C1136   1.430       .  S
O977       Cd984   2.091       .  S
O978        C996   1.278       .  A
O978       Cd987   2.095       .  S
O979       Cd983   2.092       .  S
O980        C991   1.271       .  A
O980       Cd983   2.059       .  S
Zn981       O992   2.019       .  S
Zn981       O994   2.003       .  S
Zn981       O986   1.908   1_655  S
O982        C993   1.272       .  A
O982       Cd987   2.058       .  S
Cd983       O985   2.068       .  S
Cd983       O986   1.968   1_655  S
Cd984       O988   2.068       .  S
Cd984       O997   2.063       .  S
Cd987       O989   2.066       .  S
O988        C995   1.277       .  A
C990        O994   1.271       .  A
C990       C1159   1.438       .  S
C991       C1139   1.440       .  S
C993       C1158   1.437       .  S
C995       C1134   1.429       .  S
C996        O997   1.272       .  A
C996       C1137   1.440       .  S
O998       C1014   1.278   1_655  A
O998      Zn1004   2.050       .  S
C999       O1015   1.278       .  A
C999       C1367   1.430       .  S
O1000      C1013   1.277       .  A
O1000     Cd1007   2.091       .  S
O1001      C1019   1.278       .  A
O1001     Cd1010   2.092       .  S
O1002      C1016   1.277       .  A
O1002     Cd1006   2.090       .  S
O1003     Cd1006   2.052       .  S
Zn1004     O1015   2.021       .  S
Zn1004     O1017   2.007       .  S
Zn1004     O1009   1.908       .  S
O1005      C1016   1.271       .  A
O1005     Cd1010   2.058       .  S
Cd1006     O1008   2.067       .  S
Cd1007     O1011   2.068       .  S
Cd1007     O1020   2.058       .  S
Cd1007     O1009   1.968       .  S
O1008      C1018   1.277       .  A
Cd1010     O1012   2.064       .  S
C1013      O1017   1.271       .  A
C1013      C1132   1.439       .  S
C1014      C1148   1.438       .  S
C1016      C1130   1.437       .  S
C1018      C1133   1.429       .  S
C1019      C1145   1.437       .  S
O1021      C1037   1.278       .  A
O1021     Zn1027   2.022       .  S
C1022      O1038   1.278       .  A
C1022      O1035   1.272       .  A
C1022      C1138   1.440       .  S
O1023      C1036   1.277       .  A
O1023     Cd1030   2.091       .  S
O1024      C1042   1.277       .  A
O1024     Cd1033   2.069       .  S
O1025      C1039   1.272       .  A
O1025     Cd1029   2.063       .  S
O1026      C1037   1.277       .  A
O1026     Cd1029   2.065       .  S
Zn1027     O1038   2.052       .  S
Zn1027     O1040   2.009       .  S
Zn1027     O1032   1.910       .  S
O1028      C1039   1.278       .  A
O1028     Cd1033   2.093       .  S
Cd1029     O1031   2.094       .  S
Cd1029     O1032   1.966       .  S
Cd1030     O1034   2.062       .  S
Cd1030     O1043   2.067       .  S
Cd1030     O1032   1.970       .  S
O1031      C1041   1.278       .  A
O1032     Cd1033   1.967       .  S
Cd1033     O1035   2.058       .  S
O1034      C1041   1.272       .  A
C1036      O1040   1.271       .  A
C1036      C1128   1.439       .  S
C1037      C1122   1.430       .  S
C1039      C1125   1.440       .  S
C1041      C1140   1.440       .  S
C1042      O1043   1.277       .  A
C1042      C1123   1.429       .  S
O1044      C1060   1.278       .  A
O1044     Zn1282   2.021   1_554  S
C1045      O1061   1.278       .  A
C1045      O1058   1.271       .  A
C1045      C1131   1.438       .  S
O1046      C1059   1.277       .  A
O1046     Cd1053   2.088       .  S
O1047      C1065   1.278       .  A
O1047     Cd1056   2.070       .  S
O1048      C1062   1.272       .  A
O1048     Cd1052   2.062       .  S
O1049      C1060   1.277       .  A
O1049     Cd1284   2.063   1_554  S
Zn1050     O1276   2.021       .  S
Zn1050     O1061   2.052       .  S
Zn1050     O1063   2.011       .  S
Zn1050     O1055   1.911       .  S
O1051      C1062   1.278       .  A
O1051     Cd1056   2.092       .  S
Cd1052     O1281   2.063       .  S
Cd1052     O1054   2.094       .  S
Cd1052     O1055   1.968       .  S
Cd1053     O1057   2.056       .  S
Cd1053     O1066   2.067       .  S
Cd1053     O1055   1.967       .  S
O1054      C1064   1.278       .  A
O1055     Cd1056   1.966       .  S
Cd1056     O1058   2.053       .  S
O1057      C1064   1.271       .  A
C1059      O1063   1.272       .  A
C1059      C1117   1.439       .  S
C1060      C1124   1.429       .  S
C1062      C1119   1.439       .  S
C1064      C1129   1.437       .  S
C1065      O1066   1.277       .  A
C1065      C1121   1.430       .  S
O1067      C1083   1.279       .  A
O1067     Zn1073   2.052       .  S
C1068      O1084   1.278       .  A
C1068      O1081   1.277       .  A
C1068      C1113   1.429       .  S
O1069      C1082   1.277       .  A
O1069     Cd1076   2.089       .  S
O1070      C1088   1.278       .  A
O1070     Cd1079   2.094       .  S
O1071      C1085   1.277       .  A
O1071     Cd1075   2.091       .  S
O1072      C1083   1.271       .  A
O1072     Cd1075   2.053       .  S
Zn1073     O1316   2.021   1_554  S
Zn1073     O1086   2.011       .  S
Zn1073     O1078   1.912       .  S
O1074      C1085   1.272       .  A
O1074     Cd1079   2.063       .  S
Cd1075     O1077   2.069       .  S
Cd1075     O1078   1.966       .  S
Cd1076     O1080   2.068       .  S
Cd1076     O1089   2.056       .  S
Cd1076     O1078   1.968       .  S
O1077      C1087   1.277       .  A
O1078     Cd1079   1.967       .  S
Cd1079     O1313   2.063   1_554  S
O1080      C1087   1.277       .  A
O1081     Cd1311   2.063       .  S
C1082      O1086   1.272       .  A
C1082      C1120   1.439       .  S
C1083      C1155   1.438       .  S
O1084     Zn1305   2.021       .  S
C1085      C1118   1.439       .  S
C1087      C1116   1.430       .  S
C1088      O1089   1.271       .  A
C1088      C1154   1.438       .  S
O1090      C1106   1.278       .  A
O1090     Zn1096   2.050       .  S
C1091      O1107   1.278       .  A
C1091      O1104   1.277       .  A
C1091      C1115   1.430       .  S
O1092      C1105   1.277       .  A
O1092     Cd1099   2.092       .  S
O1093      C1111   1.279       .  A
O1093     Cd1102   2.096       .  S
O1094      C1108   1.278       .  A
O1094     Cd1098   2.093       .  S
O1095      C1106   1.271       .  A
O1095     Cd1098   2.057       .  S
Zn1096     O1107   2.020       .  S
Zn1096     O1109   2.009       .  S
Zn1096     O1101   1.910       .  S
O1097      C1108   1.272       .  A
O1097     Cd1102   2.063       .  S
Cd1098     O1100   2.068       .  S
Cd1098     O1101   1.968       .  S
Cd1099     O1103   2.069       .  S
Cd1099     O1112   2.063       .  S
Cd1099     O1101   1.969       .  S
O1100      C1110   1.278       .  A
O1101     Cd1102   1.967       .  S
Cd1102     O1104   2.066       .  S
O1103      C1110   1.277       .  A
C1105      O1109   1.271       .  A
C1105      C1127   1.439       .  S
C1106      C1143   1.439       .  S
C1108      C1126   1.440       .  S
C1110      C1114   1.429       .  S
C1111      O1112   1.272       .  A
C1111      C1142   1.440       .  S
C1113      C1114   1.203       .  T
C1115      C1116   1.203       .  T
C1117      C1814   1.208       .  T
C1118      C1813   1.208   1_544  T
C1119      C1352   1.209       .  T
C1120      C1351   1.209   1_554  T
C1121      C1122   1.203       .  T
C1123      C1124   1.203       .  T
C1125      C1590   1.209       .  T
C1126      C1589   1.209   1_545  T
C1127      C1128   1.209       .  T
C1129      C1130   1.208       .  T
C1131      C1132   1.208       .  T
C1133      C1134   1.202       .  T
C1135      C1231   1.430   1_554  S
C1135      C1136   1.203   1_655  T
C1137      C1138   1.209       .  T
C1139      C1140   1.209       .  T
C1141      C1142   1.209       .  T
C1143      C1144   1.209       .  T
C1149      C1177   1.430       .  S
C1149      C1150   1.203       .  T
C1151      C1152   1.202       .  T
C1153      C1154   1.208       .  T
C1155      C1156   1.208       .  T
O1161      C1177   1.278       .  A
O1161     Zn1167   2.021       .  S
C1162      O1178   1.278       .  A
C1162      C1392   1.438       .  S
O1163      C1176   1.277       .  A
O1163     Cd1170   2.089       .  S
O1164      C1182   1.278       .  A
O1164     Cd1173   2.069       .  S
O1165      C1179   1.272       .  A
O1165     Cd1169   2.059       .  S
O1166     Cd1169   2.064       .  S
Zn1167     O1178   2.049       .  S
Zn1167     O1180   2.006       .  S
Zn1167     O1172   1.908       .  S
O1168      C1179   1.278       .  A
O1168     Cd1173   2.092       .  S
Cd1169     O1171   2.093       .  S
Cd1170     O1174   2.057       .  S
Cd1170     O1183   2.066       .  S
Cd1170     O1172   1.967       .  S
O1171      C1181   1.278   1_655  A
Cd1173     O1175   2.053       .  S
C1176      O1180   1.271       .  A
C1176      C1385   1.438       .  S
C1179      C1388   1.438       .  S
C1181      C1389   1.437       .  S
C1182      C1384   1.429       .  S
O1184      C1200   1.278       .  A
O1184     Zn1190   2.021       .  S
C1185      O1201   1.278       .  A
C1185      O1198   1.272       .  A
C1185      C1373   1.440       .  S
O1186     Cd1193   2.090       .  S
O1187     Cd1196   2.069       .  S
O1188      C1202   1.271       .  A
O1188     Cd1192   2.056       .  S
O1189     Cd1192   2.065       .  S
Zn1190     O1201   2.051       .  S
Zn1190     O1203   2.006       .  S
Zn1190     O1195   1.909       .  S
O1191     Cd1196   2.093       .  S
Cd1192     O1194   2.093       .  S
Cd1193     O1197   2.062       .  S
Cd1193     O1206   2.066       .  S
O1194      C1204   1.278       .  A
O1195     Cd1196   1.968       .  S
Cd1196     O1198   2.059       .  S
O1197      C1204   1.272       .  A
C1199      O1203   1.271       .  A
C1199      C1379   1.438       .  S
C1200      C1382   1.430       .  S
C1202      C1378   1.437       .  S
C1204      C1376   1.439       .  S
C1205      O1206   1.277       .  A
C1205      C1383   1.429       .  S
O1207      C1223   1.278       .  A
O1207     Zn1213   2.048       .  S
C1208      O1224   1.278   1_455  A
C1208      C1368   1.430       .  S
O1209     Cd1216   2.091       .  S
O1210      C1228   1.278       .  A
O1210     Cd1219   2.095       .  S
O1211     Cd1215   2.092       .  S
O1212      C1223   1.271       .  A
O1212     Cd1215   2.059       .  S
Zn1213     O1224   2.019       .  S
Zn1213     O1226   2.003       .  S
Zn1213     O1218   1.908   1_655  S
O1214      C1225   1.272       .  A
O1214     Cd1219   2.058       .  S
Cd1215     O1217   2.068       .  S
Cd1215     O1218   1.968   1_655  S
Cd1216     O1220   2.068       .  S
Cd1216     O1229   2.063       .  S
Cd1219     O1221   2.066       .  S
O1220      C1227   1.277       .  A
C1222      O1226   1.271       .  A
C1222      C1391   1.438       .  S
C1223      C1371   1.440       .  S
C1225      C1390   1.437       .  S
C1227      C1366   1.429       .  S
C1228      O1229   1.272       .  A
C1228      C1369   1.440       .  S
O1230      C1246   1.278   1_655  A
O1230     Zn1236   2.050       .  S
C1231      O1247   1.278       .  A
O1232      C1245   1.277       .  A
O1232     Cd1239   2.091       .  S
O1233      C1251   1.278       .  A
O1233     Cd1242   2.092       .  S
O1234      C1248   1.277       .  A
O1234     Cd1238   2.090       .  S
O1235     Cd1238   2.052       .  S
Zn1236     O1247   2.021       .  S
Zn1236     O1249   2.007       .  S
Zn1236     O1241   1.908       .  S
O1237      C1248   1.271       .  A
O1237     Cd1242   2.058       .  S
Cd1238     O1240   2.067       .  S
Cd1239     O1243   2.068       .  S
Cd1239     O1252   2.058       .  S
Cd1239     O1241   1.968       .  S
O1240      C1250   1.277       .  A
Cd1242     O1244   2.064       .  S
C1245      O1249   1.271       .  A
C1245      C1364   1.439       .  S
C1246      C1380   1.438       .  S
C1248      C1362   1.437       .  S
C1250      C1365   1.429       .  S
C1251      C1377   1.437       .  S
O1253      C1269   1.278       .  A
O1253     Zn1259   2.022       .  S
C1254      O1270   1.278       .  A
C1254      O1267   1.272       .  A
C1254      C1370   1.440       .  S
O1255      C1268   1.277       .  A
O1255     Cd1262   2.091       .  S
O1256      C1274   1.277       .  A
O1256     Cd1265   2.069       .  S
O1257      C1271   1.272       .  A
O1257     Cd1261   2.063       .  S
O1258      C1269   1.277       .  A
O1258     Cd1261   2.065       .  S
Zn1259     O1270   2.052       .  S
Zn1259     O1272   2.009       .  S
Zn1259     O1264   1.910       .  S
O1260      C1271   1.278       .  A
O1260     Cd1265   2.093       .  S
Cd1261     O1263   2.094       .  S
Cd1261     O1264   1.966       .  S
Cd1262     O1266   2.062       .  S
Cd1262     O1275   2.067       .  S
Cd1262     O1264   1.970       .  S
O1263      C1273   1.278       .  A
O1264     Cd1265   1.967       .  S
Cd1265     O1267   2.058       .  S
O1266      C1273   1.272       .  A
C1268      O1272   1.271       .  A
C1268      C1360   1.439       .  S
C1269      C1354   1.430       .  S
C1271      C1357   1.440       .  S
C1273      C1372   1.440       .  S
C1274      O1275   1.277       .  A
C1274      C1355   1.429       .  S
O1276      C1292   1.278       .  A
C1277      O1293   1.278       .  A
C1277      O1290   1.271       .  A
C1277      C1363   1.438       .  S
O1278      C1291   1.277       .  A
O1278     Cd1285   2.088       .  S
O1279      C1297   1.278       .  A
O1279     Cd1288   2.070       .  S
O1280      C1294   1.272       .  A
O1280     Cd1284   2.062       .  S
O1281      C1292   1.277       .  A
Zn1282     O1293   2.052       .  S
Zn1282     O1295   2.011       .  S
Zn1282     O1287   1.911       .  S
O1283      C1294   1.278       .  A
O1283     Cd1288   2.092       .  S
Cd1284     O1286   2.094       .  S
Cd1284     O1287   1.968       .  S
Cd1285     O1289   2.056       .  S
Cd1285     O1298   2.067       .  S
Cd1285     O1287   1.967       .  S
O1286      C1296   1.278       .  A
O1287     Cd1288   1.966       .  S
Cd1288     O1290   2.053       .  S
O1289      C1296   1.271       .  A
C1291      O1295   1.272       .  A
C1291      C1349   1.439       .  S
C1292      C1356   1.429       .  S
C1294      C1351   1.439       .  S
C1296      C1361   1.437       .  S
C1297      O1298   1.277       .  A
C1297      C1353   1.430       .  S
O1299      C1315   1.279       .  A
O1299     Zn1305   2.052       .  S
C1300      O1316   1.278       .  A
C1300      O1313   1.277       .  A
C1300      C1345   1.429       .  S
O1301      C1314   1.277       .  A
O1301     Cd1308   2.089       .  S
O1302      C1320   1.278       .  A
O1302     Cd1311   2.094       .  S
O1303      C1317   1.277       .  A
O1303     Cd1307   2.091       .  S
O1304      C1315   1.271       .  A
O1304     Cd1307   2.053       .  S
Zn1305     O1318   2.011       .  S
Zn1305     O1310   1.912       .  S
O1306      C1317   1.272       .  A
O1306     Cd1311   2.063       .  S
Cd1307     O1309   2.069       .  S
Cd1307     O1310   1.966       .  S
Cd1308     O1312   2.068       .  S
Cd1308     O1321   2.056       .  S
Cd1308     O1310   1.968       .  S
O1309      C1319   1.277       .  A
O1310     Cd1311   1.967       .  S
O1312      C1319   1.277       .  A
C1314      O1318   1.272       .  A
C1314      C1352   1.439       .  S
C1315      C1387   1.438       .  S
C1317      C1350   1.439       .  S
C1319      C1348   1.430       .  S
C1320      O1321   1.271       .  A
C1320      C1386   1.438       .  S
O1322      C1338   1.278       .  A
O1322     Zn1328   2.050       .  S
C1323      O1339   1.278       .  A
C1323      O1336   1.277       .  A
C1323      C1347   1.430       .  S
O1324      C1337   1.277       .  A
O1324     Cd1331   2.092       .  S
O1325      C1343   1.279       .  A
O1325     Cd1334   2.096       .  S
O1326      C1340   1.278       .  A
O1326     Cd1330   2.093       .  S
O1327      C1338   1.271       .  A
O1327     Cd1330   2.057       .  S
Zn1328     O1339   2.020       .  S
Zn1328     O1341   2.009       .  S
Zn1328     O1333   1.910       .  S
O1329      C1340   1.272       .  A
O1329     Cd1334   2.063       .  S
Cd1330     O1332   2.068       .  S
Cd1330     O1333   1.968       .  S
Cd1331     O1335   2.069       .  S
Cd1331     O1344   2.063       .  S
Cd1331     O1333   1.969       .  S
O1332      C1342   1.278       .  A
O1333     Cd1334   1.967       .  S
Cd1334     O1336   2.066       .  S
O1335      C1342   1.277       .  A
C1337      O1341   1.271       .  A
C1337      C1359   1.439       .  S
C1338      C1375   1.439       .  S
C1340      C1358   1.440       .  S
C1342      C1346   1.429       .  S
C1343      O1344   1.272       .  A
C1343      C1374   1.440       .  S
C1345      C1346   1.203       .  T
C1347      C1348   1.203       .  T
C1349      C1582   1.208   1_556  T
C1350      C1581   1.208   1_545  T
C1353      C1354   1.203       .  T
C1355      C1356   1.203       .  T
C1357      C1822   1.209       .  T
C1358      C1821   1.209   1_545  T
C1359      C1360   1.209       .  T
C1361      C1362   1.208       .  T
C1363      C1364   1.208       .  T
C1365      C1366   1.202       .  T
C1367      C1368   1.203   1_655  T
C1369      C1370   1.209       .  T
C1371      C1372   1.209       .  T
C1373      C1374   1.209       .  T
C1375      C1376   1.209       .  T
C1381      C1382   1.203       .  T
C1383      C1384   1.202       .  T
C1385      C1386   1.208       .  T
C1387      C1388   1.208       .  T
O1393      C1409   1.278       .  A
O1393     Zn1399   2.021       .  S
C1394      O1410   1.278       .  A
C1394      C1624   1.438       .  S
O1395      C1408   1.277       .  A
O1395     Cd1402   2.089       .  S
O1396      C1414   1.278       .  A
O1396     Cd1405   2.069       .  S
O1397      C1411   1.272       .  A
O1397     Cd1401   2.059       .  S
O1398     Cd1401   2.064       .  S
Zn1399     O1410   2.049       .  S
Zn1399     O1412   2.006       .  S
Zn1399     O1404   1.908       .  S
O1400      C1411   1.278       .  A
O1400     Cd1405   2.092       .  S
Cd1401     O1403   2.093       .  S
Cd1402     O1406   2.057       .  S
Cd1402     O1415   2.066       .  S
Cd1402     O1404   1.967       .  S
O1403      C1413   1.278   1_655  A
Cd1405     O1407   2.053       .  S
C1408      O1412   1.271       .  A
C1408      C1617   1.438       .  S
C1409      C1845   1.430   1_554  S
C1411      C1620   1.438       .  S
C1413      C1621   1.437       .  S
C1414      C1616   1.429       .  S
O1416      C1432   1.278       .  A
O1416     Zn1422   2.021       .  S
C1417      O1433   1.278       .  A
C1417      O1430   1.272       .  A
C1417      C1605   1.440       .  S
O1418     Cd1425   2.090       .  S
O1419     Cd1428   2.069       .  S
O1420      C1434   1.271       .  A
O1420     Cd1424   2.056       .  S
O1421     Cd1424   2.065       .  S
Zn1422     O1433   2.051       .  S
Zn1422     O1435   2.006       .  S
Zn1422     O1427   1.909       .  S
O1423     Cd1428   2.093       .  S
Cd1424     O1426   2.093       .  S
Cd1425     O1429   2.062       .  S
Cd1425     O1438   2.066       .  S
O1426      C1436   1.278       .  A
O1427     Cd1428   1.968       .  S
Cd1428     O1430   2.059       .  S
O1429      C1436   1.272       .  A
C1431      O1435   1.271       .  A
C1431      C1611   1.438       .  S
C1432      C1614   1.430       .  S
C1434      C1610   1.437       .  S
C1436      C1608   1.439       .  S
C1437      O1438   1.277       .  A
C1437      C1615   1.429       .  S
O1439      C1455   1.278       .  A
O1439     Zn1445   2.048       .  S
C1440      O1456   1.278   1_455  A
C1440      C1600   1.430       .  S
O1441     Cd1448   2.091       .  S
O1442      C1460   1.278       .  A
O1442     Cd1451   2.095       .  S
O1443     Cd1447   2.092       .  S
O1444      C1455   1.271       .  A
O1444     Cd1447   2.059       .  S
Zn1445     O1456   2.019       .  S
Zn1445     O1458   2.003       .  S
Zn1445     O1450   1.908   1_655  S
O1446      C1457   1.272       .  A
O1446     Cd1451   2.058       .  S
Cd1447     O1449   2.068       .  S
Cd1447     O1450   1.968   1_655  S
Cd1448     O1452   2.068       .  S
Cd1448     O1461   2.063       .  S
Cd1451     O1453   2.066       .  S
O1452      C1459   1.277       .  A
C1454      O1458   1.271       .  A
C1454      C1623   1.438       .  S
C1455      C1603   1.440       .  S
C1457      C1622   1.437       .  S
C1459      C1598   1.429       .  S
C1460      O1461   1.272       .  A
C1460      C1601   1.440       .  S
O1462      C1478   1.278   1_655  A
O1462     Zn1468   2.050       .  S
C1463      O1479   1.278       .  A
C1463      C1831   1.430       .  S
O1464      C1477   1.277       .  A
O1464     Cd1471   2.091       .  S
O1465      C1483   1.278       .  A
O1465     Cd1474   2.092       .  S
O1466      C1480   1.277       .  A
O1466     Cd1470   2.090       .  S
O1467     Cd1470   2.052       .  S
Zn1468     O1479   2.021       .  S
Zn1468     O1481   2.007       .  S
Zn1468     O1473   1.908       .  S
O1469      C1480   1.271       .  A
O1469     Cd1474   2.058       .  S
Cd1470     O1472   2.067       .  S
Cd1471     O1475   2.068       .  S
Cd1471     O1484   2.058       .  S
Cd1471     O1473   1.968       .  S
O1472      C1482   1.277       .  A
Cd1474     O1476   2.064       .  S
C1477      O1481   1.271       .  A
C1477      C1596   1.439       .  S
C1478      C1612   1.438       .  S
C1480      C1594   1.437       .  S
C1482      C1597   1.429       .  S
C1483      C1609   1.437       .  S
O1485      C1501   1.278       .  A
O1485     Zn1491   2.022       .  S
C1486      O1502   1.278       .  A
C1486      O1499   1.272       .  A
C1486      C1602   1.440       .  S
O1487      C1500   1.277       .  A
O1487     Cd1494   2.091       .  S
O1488      C1506   1.277       .  A
O1488     Cd1497   2.069       .  S
O1489      C1503   1.272       .  A
O1489     Cd1493   2.063       .  S
O1490      C1501   1.277       .  A
O1490     Cd1493   2.065       .  S
Zn1491     O1502   2.052       .  S
Zn1491     O1504   2.009       .  S
Zn1491     O1496   1.910       .  S
O1492      C1503   1.278       .  A
O1492     Cd1497   2.093       .  S
Cd1493     O1495   2.094       .  S
Cd1493     O1496   1.966       .  S
Cd1494     O1498   2.062       .  S
Cd1494     O1507   2.067       .  S
Cd1494     O1496   1.970       .  S
O1495      C1505   1.278       .  A
O1496     Cd1497   1.967       .  S
Cd1497     O1499   2.058       .  S
O1498      C1505   1.272       .  A
C1500      O1504   1.271       .  A
C1500      C1592   1.439       .  S
C1501      C1586   1.430       .  S
C1503      C1589   1.440       .  S
C1505      C1604   1.440       .  S
C1506      O1507   1.277       .  A
C1506      C1587   1.429       .  S
O1508      C1524   1.278       .  A
O1508     Zn1746   2.021   1_554  S
C1509      O1525   1.278       .  A
C1509      O1522   1.271       .  A
C1509      C1595   1.438       .  S
O1510      C1523   1.277       .  A
O1510     Cd1517   2.088       .  S
O1511      C1529   1.278       .  A
O1511     Cd1520   2.070       .  S
O1512      C1526   1.272       .  A
O1512     Cd1516   2.062       .  S
O1513      C1524   1.277       .  A
O1513     Cd1748   2.063   1_554  S
Zn1514     O1740   2.021       .  S
Zn1514     O1525   2.052       .  S
Zn1514     O1527   2.011       .  S
Zn1514     O1519   1.911       .  S
O1515      C1526   1.278       .  A
O1515     Cd1520   2.092       .  S
Cd1516     O1745   2.063       .  S
Cd1516     O1518   2.094       .  S
Cd1516     O1519   1.968       .  S
Cd1517     O1521   2.056       .  S
Cd1517     O1530   2.067       .  S
Cd1517     O1519   1.967       .  S
O1518      C1528   1.278       .  A
O1519     Cd1520   1.966       .  S
Cd1520     O1522   2.053       .  S
O1521      C1528   1.271       .  A
C1523      O1527   1.272       .  A
C1523      C1581   1.439       .  S
C1524      C1588   1.429       .  S
C1526      C1583   1.439       .  S
C1528      C1593   1.437       .  S
C1529      O1530   1.277       .  A
C1529      C1585   1.430       .  S
O1531      C1547   1.279       .  A
O1531     Zn1537   2.052       .  S
C1532      O1548   1.278       .  A
C1532      O1545   1.277       .  A
C1532      C1577   1.429       .  S
O1533      C1546   1.277       .  A
O1533     Cd1540   2.089       .  S
O1534      C1552   1.278       .  A
O1534     Cd1543   2.094       .  S
O1535      C1549   1.277       .  A
O1535     Cd1539   2.091       .  S
O1536      C1547   1.271       .  A
O1536     Cd1539   2.053       .  S
Zn1537     O1780   2.021   1_554  S
Zn1537     O1550   2.011       .  S
Zn1537     O1542   1.912       .  S
O1538      C1549   1.272       .  A
O1538     Cd1543   2.063       .  S
Cd1539     O1541   2.069       .  S
Cd1539     O1542   1.966       .  S
Cd1540     O1544   2.068       .  S
Cd1540     O1553   2.056       .  S
Cd1540     O1542   1.968       .  S
O1541      C1551   1.277       .  A
O1542     Cd1543   1.967       .  S
Cd1543     O1777   2.063   1_554  S
O1544      C1551   1.277       .  A
O1545     Cd1775   2.063       .  S
C1546      O1550   1.272       .  A
C1546      C1584   1.439       .  S
C1547      C1619   1.438       .  S
O1548     Zn1769   2.021       .  S
C1549      C1582   1.439       .  S
C1551      C1580   1.430       .  S
C1552      O1553   1.271       .  A
C1552      C1618   1.438       .  S
O1554      C1570   1.278       .  A
O1554     Zn1560   2.050       .  S
C1555      O1571   1.278       .  A
C1555      O1568   1.277       .  A
C1555      C1579   1.430       .  S
O1556      C1569   1.277       .  A
O1556     Cd1563   2.092       .  S
O1557      C1575   1.279       .  A
O1557     Cd1566   2.096       .  S
O1558      C1572   1.278       .  A
O1558     Cd1562   2.093       .  S
O1559      C1570   1.271       .  A
O1559     Cd1562   2.057       .  S
Zn1560     O1571   2.020       .  S
Zn1560     O1573   2.009       .  S
Zn1560     O1565   1.910       .  S
O1561      C1572   1.272       .  A
O1561     Cd1566   2.063       .  S
Cd1562     O1564   2.068       .  S
Cd1562     O1565   1.968       .  S
Cd1563     O1567   2.069       .  S
Cd1563     O1576   2.063       .  S
Cd1563     O1565   1.969       .  S
O1564      C1574   1.278       .  A
O1565     Cd1566   1.967       .  S
Cd1566     O1568   2.066       .  S
O1567      C1574   1.277       .  A
C1569      O1573   1.271       .  A
C1569      C1591   1.439       .  S
C1570      C1607   1.439       .  S
C1572      C1590   1.440       .  S
C1574      C1578   1.429       .  S
C1575      O1576   1.272       .  A
C1575      C1606   1.440       .  S
C1577      C1578   1.203       .  T
C1579      C1580   1.203       .  T
C1583      C1816   1.209       .  T
C1584      C1815   1.209   1_554  T
C1585      C1586   1.203       .  T
C1587      C1588   1.203       .  T
C1591      C1592   1.209       .  T
C1593      C1594   1.208       .  T
C1595      C1596   1.208       .  T
C1597      C1598   1.202       .  T
C1599      C1695   1.430   1_554  S
C1599      C1600   1.203   1_655  T
C1601      C1602   1.209       .  T
C1603      C1604   1.209       .  T
C1605      C1606   1.209       .  T
C1607      C1608   1.209       .  T
C1613      C1641   1.430       .  S
C1613      C1614   1.203       .  T
C1615      C1616   1.202       .  T
C1617      C1618   1.208       .  T
C1619      C1620   1.208       .  T
O1625      C1641   1.278       .  A
O1625     Zn1631   2.021       .  S
C1626      O1642   1.278       .  A
C1626      C1856   1.438       .  S
O1627      C1640   1.277       .  A
O1627     Cd1634   2.089       .  S
O1628      C1646   1.278       .  A
O1628     Cd1637   2.069       .  S
O1629      C1643   1.272       .  A
O1629     Cd1633   2.059       .  S
O1630     Cd1633   2.064       .  S
Zn1631     O1642   2.049       .  S
Zn1631     O1644   2.006       .  S
Zn1631     O1636   1.908       .  S
O1632      C1643   1.278       .  A
O1632     Cd1637   2.092       .  S
Cd1633     O1635   2.093       .  S
Cd1634     O1638   2.057       .  S
Cd1634     O1647   2.066       .  S
Cd1634     O1636   1.967       .  S
O1635      C1645   1.278   1_655  A
Cd1637     O1639   2.053       .  S
C1640      O1644   1.271       .  A
C1640      C1849   1.438       .  S
C1643      C1852   1.438       .  S
C1645      C1853   1.437       .  S
C1646      C1848   1.429       .  S
O1648      C1664   1.278       .  A
O1648     Zn1654   2.021       .  S
C1649      O1665   1.278       .  A
C1649      O1662   1.272       .  A
C1649      C1837   1.440       .  S
O1650     Cd1657   2.090       .  S
O1651     Cd1660   2.069       .  S
O1652      C1666   1.271       .  A
O1652     Cd1656   2.056       .  S
O1653     Cd1656   2.065       .  S
Zn1654     O1665   2.051       .  S
Zn1654     O1667   2.006       .  S
Zn1654     O1659   1.909       .  S
O1655     Cd1660   2.093       .  S
Cd1656     O1658   2.093       .  S
Cd1657     O1661   2.062       .  S
Cd1657     O1670   2.066       .  S
O1658      C1668   1.278       .  A
O1659     Cd1660   1.968       .  S
Cd1660     O1662   2.059       .  S
O1661      C1668   1.272       .  A
C1663      O1667   1.271       .  A
C1663      C1843   1.438       .  S
C1664      C1846   1.430       .  S
C1666      C1842   1.437       .  S
C1668      C1840   1.439       .  S
C1669      O1670   1.277       .  A
C1669      C1847   1.429       .  S
O1671      C1687   1.278       .  A
O1671     Zn1677   2.048       .  S
C1672      O1688   1.278   1_455  A
C1672      C1832   1.430       .  S
O1673     Cd1680   2.091       .  S
O1674      C1692   1.278       .  A
O1674     Cd1683   2.095       .  S
O1675     Cd1679   2.092       .  S
O1676      C1687   1.271       .  A
O1676     Cd1679   2.059       .  S
Zn1677     O1688   2.019       .  S
Zn1677     O1690   2.003       .  S
Zn1677     O1682   1.908   1_655  S
O1678      C1689   1.272       .  A
O1678     Cd1683   2.058       .  S
Cd1679     O1681   2.068       .  S
Cd1679     O1682   1.968   1_655  S
Cd1680     O1684   2.068       .  S
Cd1680     O1693   2.063       .  S
Cd1683     O1685   2.066       .  S
O1684      C1691   1.277       .  A
C1686      O1690   1.271       .  A
C1686      C1855   1.438       .  S
C1687      C1835   1.440       .  S
C1689      C1854   1.437       .  S
C1691      C1830   1.429       .  S
C1692      O1693   1.272       .  A
C1692      C1833   1.440       .  S
O1694      C1710   1.278   1_655  A
O1694     Zn1700   2.050       .  S
C1695      O1711   1.278       .  A
O1696      C1709   1.277       .  A
O1696     Cd1703   2.091       .  S
O1697      C1715   1.278       .  A
O1697     Cd1706   2.092       .  S
O1698      C1712   1.277       .  A
O1698     Cd1702   2.090       .  S
O1699     Cd1702   2.052       .  S
Zn1700     O1711   2.021       .  S
Zn1700     O1713   2.007       .  S
Zn1700     O1705   1.908       .  S
O1701      C1712   1.271       .  A
O1701     Cd1706   2.058       .  S
Cd1702     O1704   2.067       .  S
Cd1703     O1707   2.068       .  S
Cd1703     O1716   2.058       .  S
Cd1703     O1705   1.968       .  S
O1704      C1714   1.277       .  A
Cd1706     O1708   2.064       .  S
C1709      O1713   1.271       .  A
C1709      C1828   1.439       .  S
C1710      C1844   1.438       .  S
C1712      C1826   1.437       .  S
C1714      C1829   1.429       .  S
C1715      C1841   1.437       .  S
O1717      C1733   1.278       .  A
O1717     Zn1723   2.022       .  S
C1718      O1734   1.278       .  A
C1718      O1731   1.272       .  A
C1718      C1834   1.440       .  S
O1719      C1732   1.277       .  A
O1719     Cd1726   2.091       .  S
O1720      C1738   1.277       .  A
O1720     Cd1729   2.069       .  S
O1721      C1735   1.272       .  A
O1721     Cd1725   2.063       .  S
O1722      C1733   1.277       .  A
O1722     Cd1725   2.065       .  S
Zn1723     O1734   2.052       .  S
Zn1723     O1736   2.009       .  S
Zn1723     O1728   1.910       .  S
O1724      C1735   1.278       .  A
O1724     Cd1729   2.093       .  S
Cd1725     O1727   2.094       .  S
Cd1725     O1728   1.966       .  S
Cd1726     O1730   2.062       .  S
Cd1726     O1739   2.067       .  S
Cd1726     O1728   1.970       .  S
O1727      C1737   1.278       .  A
O1728     Cd1729   1.967       .  S
Cd1729     O1731   2.058       .  S
O1730      C1737   1.272       .  A
C1732      O1736   1.271       .  A
C1732      C1824   1.439       .  S
C1733      C1818   1.430       .  S
C1735      C1821   1.440       .  S
C1737      C1836   1.440       .  S
C1738      O1739   1.277       .  A
C1738      C1819   1.429       .  S
O1740      C1756   1.278       .  A
C1741      O1757   1.278       .  A
C1741      O1754   1.271       .  A
C1741      C1827   1.438       .  S
O1742      C1755   1.277       .  A
O1742     Cd1749   2.088       .  S
O1743      C1761   1.278       .  A
O1743     Cd1752   2.070       .  S
O1744      C1758   1.272       .  A
O1744     Cd1748   2.062       .  S
O1745      C1756   1.277       .  A
Zn1746     O1757   2.052       .  S
Zn1746     O1759   2.011       .  S
Zn1746     O1751   1.911       .  S
O1747      C1758   1.278       .  A
O1747     Cd1752   2.092       .  S
Cd1748     O1750   2.094       .  S
Cd1748     O1751   1.968       .  S
Cd1749     O1753   2.056       .  S
Cd1749     O1762   2.067       .  S
Cd1749     O1751   1.967       .  S
O1750      C1760   1.278       .  A
O1751     Cd1752   1.966       .  S
Cd1752     O1754   2.053       .  S
O1753      C1760   1.271       .  A
C1755      O1759   1.272       .  A
C1755      C1813   1.439       .  S
C1756      C1820   1.429       .  S
C1758      C1815   1.439       .  S
C1760      C1825   1.437       .  S
C1761      O1762   1.277       .  A
C1761      C1817   1.430       .  S
O1763      C1779   1.279       .  A
O1763     Zn1769   2.052       .  S
C1764      O1780   1.278       .  A
C1764      O1777   1.277       .  A
C1764      C1809   1.429       .  S
O1765      C1778   1.277       .  A
O1765     Cd1772   2.089       .  S
O1766      C1784   1.278       .  A
O1766     Cd1775   2.094       .  S
O1767      C1781   1.277       .  A
O1767     Cd1771   2.091       .  S
O1768      C1779   1.271       .  A
O1768     Cd1771   2.053       .  S
Zn1769     O1782   2.011       .  S
Zn1769     O1774   1.912       .  S
O1770      C1781   1.272       .  A
O1770     Cd1775   2.063       .  S
Cd1771     O1773   2.069       .  S
Cd1771     O1774   1.966       .  S
Cd1772     O1776   2.068       .  S
Cd1772     O1785   2.056       .  S
Cd1772     O1774   1.968       .  S
O1773      C1783   1.277       .  A
O1774     Cd1775   1.967       .  S
O1776      C1783   1.277       .  A
C1778      O1782   1.272       .  A
C1778      C1816   1.439       .  S
C1779      C1851   1.438       .  S
C1781      C1814   1.439       .  S
C1783      C1812   1.430       .  S
C1784      O1785   1.271       .  A
C1784      C1850   1.438       .  S
O1786      C1802   1.278       .  A
O1786     Zn1792   2.050       .  S
C1787      O1803   1.278       .  A
C1787      O1800   1.277       .  A
C1787      C1811   1.430       .  S
O1788      C1801   1.277       .  A
O1788     Cd1795   2.092       .  S
O1789      C1807   1.279       .  A
O1789     Cd1798   2.096       .  S
O1790      C1804   1.278       .  A
O1790     Cd1794   2.093       .  S
O1791      C1802   1.271       .  A
O1791     Cd1794   2.057       .  S
Zn1792     O1803   2.020       .  S
Zn1792     O1805   2.009       .  S
Zn1792     O1797   1.910       .  S
O1793      C1804   1.272       .  A
O1793     Cd1798   2.063       .  S
Cd1794     O1796   2.068       .  S
Cd1794     O1797   1.968       .  S
Cd1795     O1799   2.069       .  S
Cd1795     O1808   2.063       .  S
Cd1795     O1797   1.969       .  S
O1796      C1806   1.278       .  A
O1797     Cd1798   1.967       .  S
Cd1798     O1800   2.066       .  S
O1799      C1806   1.278       .  A
C1801      O1805   1.271       .  A
C1801      C1823   1.439       .  S
C1802      C1839   1.439       .  S
C1804      C1822   1.440       .  S
C1806      C1810   1.429       .  S
C1807      O1808   1.272       .  A
C1807      C1838   1.440       .  S
C1809      C1810   1.203       .  T
C1811      C1812   1.203       .  T
C1817      C1818   1.203       .  T
C1819      C1820   1.203       .  T
C1823      C1824   1.209       .  T
C1825      C1826   1.208       .  T
C1827      C1828   1.208       .  T
C1829      C1830   1.202       .  T
C1831      C1832   1.203   1_655  T
C1833      C1834   1.209       .  T
C1835      C1836   1.209       .  T
C1837      C1838   1.209       .  T
C1839      C1840   1.209       .  T
C1845      C1846   1.203       .  T
C1847      C1848   1.202       .  T
C1849      C1850   1.208       .  T
C1851      C1852   1.208       .  T
