geometry optimzed in LAMMPS
_audit_creation_date              2020-11-30 
_audit_creation_method            'lammps2cif' 
_symmetry_space_group_name_H-M    'P1' 
_symmetry_Int_Tables_number       1 
_symmetry_cell_setting            triclinic 
loop_ 
_symmetry_equiv_pos_as_xyz 
  x,y,z 
_cell_length_a                    43.48481997 
_cell_length_b                    43.536243808784334 
_cell_length_c                    43.36900959789213 
_cell_angle_alpha                 89.81682495074912 
_cell_angle_beta                  90.28874090667286 
_cell_angle_gamma                 89.81901981419887 
loop_ 
_atom_site_label 
_atom_site_type_symbol 
_atom_site_fract_x 
_atom_site_fract_y 
_atom_site_fract_z 
_atom_site_charge 
O1          O  0.16940301  0.70352533  0.50311130    -0.77100
C2          C  0.20319137  0.79075121  0.53001258     0.83900
O3          O  0.22152491  0.71366931  0.42238325    -0.78200
O4          O  0.28670641  0.78078948  0.50238037    -0.79700
O5          O  0.27541230  0.67318202  0.52970612    -0.79500
O6          O  0.20078909  0.66306256  0.50546933    -0.78100
Zn7        Zn  0.19724456  0.73716647  0.48820423     1.55700
O8          O  0.29092855  0.71936674  0.54624910    -0.79500
Cd9        Cd  0.24291485  0.68175275  0.49679015     1.59700
Cd10       Cd  0.25772578  0.73202804  0.45023446     1.59600
O11         O  0.26350983  0.66099204  0.45957787    -0.79500
O12         O  0.23927747  0.72600780  0.49131891    -1.90000
Cd13       Cd  0.25952762  0.74955754  0.52392467     1.59900
O14         O  0.29275484  0.70021798  0.44622867    -0.79500
O15         O  0.22744502  0.78074177  0.54395670    -0.78100
C16         C  0.19426898  0.72062890  0.43050391     0.84400
C17         C  0.17404491  0.67493012  0.50752299     0.84000
O18         O  0.19053452  0.77592195  0.50841574    -0.77100
C19         C  0.29486946  0.69022424  0.54338684     0.84900
O20         O  0.19068818  0.74559369  0.44462088    -0.77200
C21         C  0.28835994  0.67133811  0.44818302     0.85000
C22         C  0.28919158  0.79113782  0.47508152     0.85300
O23         O  0.27681825  0.77726413  0.45182817    -0.79600
O24         O  0.80297833  0.77950069  0.02949497    -0.77100
C25         C  0.80579354  0.68276599  0.06159647     0.83900
O26         O  0.77929965  0.71106247  0.95731169    -0.78200
O27         O  0.71066907  0.66869626  0.01684219    -0.79700
O28         O  0.69734712  0.74914685  0.07499605    -0.79500
O29         O  0.76276846  0.80467754  0.04807748    -0.78100
Zn30       Zn  0.79077942  0.73649767  0.03108026     1.55700
O31         O  0.72213092  0.70593708  0.08231872    -0.79500
Cd32       Cd  0.72985422  0.76820685  0.04430533     1.59700
Cd33       Cd  0.73891749  0.73055625  0.97876613     1.59600
O34         O  0.70144120  0.78806420  0.01348945    -0.79500
O35         O  0.74893274  0.73287540  0.02312335    -1.90000
Cd36       Cd  0.74152863  0.69298066  0.04227494     1.59900
O37         O  0.71851424  0.77416483  0.96679991    -0.79500
O38         O  0.78257856  0.67069104  0.04850923    -0.78100
C39         C  0.80540250  0.70653512  0.97075407     0.84400
C40         C  0.78998157  0.80459127  0.03650640     0.84000
O41         O  0.80690780  0.71157789  0.06654269    -0.77100
C42         C  0.69684832  0.71989237  0.07797273     0.84900
O43         O  0.81053987  0.71625058  0.99765432    -0.77200
C44         C  0.70206235  0.79137194  0.98447766     0.85000
C45         C  0.69669225  0.67504071  0.99180173     0.85300
O46         O  0.70384430  0.69825181  0.97521368    -0.79600
O47         O  0.27206999  0.48257601  0.20128351    -0.77100
C48         C  0.16920548  0.46273849  0.19339229     0.83900
O49         O  0.20618100  0.56092756  0.21474065    -0.78200
O50         O  0.15923751  0.51629098  0.28740577    -0.79700
O51         O  0.22717115  0.44674990  0.30411267    -0.79500
O52         O  0.29181815  0.46920973  0.24679893    -0.78100
Zn53       Zn  0.22755175  0.48676670  0.20858837     1.55700
O54         O  0.18307390  0.44496210  0.27856718    -0.79500
Cd55       Cd  0.25131016  0.47537992  0.27387983     1.59700
Cd56       Cd  0.22516765  0.54166037  0.25590902     1.59600
O57         O  0.26565986  0.50794855  0.30341011    -0.79500
O58         O  0.22084414  0.49751897  0.24917687    -1.90000
Cd59       Cd  0.17873735  0.48593312  0.25656992     1.59900
O60         O  0.27229872  0.54545449  0.26998383    -0.79500
O61         O  0.15775488  0.47989093  0.21425782    -0.78100
C62         C  0.20295681  0.54729008  0.18870835     0.84400
C63         C  0.29527931  0.47738906  0.21849563     0.84000
O64         O  0.19764327  0.45504773  0.19382241    -0.77100
C65         C  0.19778799  0.44457990  0.30392656     0.84900
O66         O  0.21343060  0.52063401  0.18406153    -0.77200
C67         C  0.28279751  0.52833564  0.29192941     0.85000
C68         C  0.17057967  0.53959285  0.30114930     0.85300
O69         O  0.19606648  0.55154702  0.29269900    -0.79600
O70         O  0.49517654  0.19993057  0.27075876    -0.77100
C71         C  0.47571319  0.18557178  0.16964289     0.83900
O72         O  0.56590873  0.23329741  0.19160736    -0.78200
O73         O  0.51219914  0.28296232  0.14979996    -0.79700
O74         O  0.44894712  0.30163368  0.22331214    -0.79500
O75         O  0.45937728  0.23527182  0.28044390    -0.78100
Zn76       Zn  0.50653436  0.20744782  0.22771346     1.55700
O77         O  0.44510171  0.28046030  0.17680781    -0.79500
Cd78       Cd  0.47322256  0.26765274  0.24729237     1.59700
Cd79       Cd  0.54177990  0.26794840  0.21690892     1.59600
O80         O  0.49946043  0.29393761  0.27420064    -0.79500
O81         O  0.50075563  0.24917280  0.21764746    -1.90000
Cd82       Cd  0.48462111  0.25438560  0.17556076     1.59900
O83         O  0.54901938  0.28807815  0.26130059    -0.79500
O84         O  0.47712783  0.21183102  0.15660062    -0.78100
C85         C  0.56144608  0.20513041  0.19857385     0.84400
C86         C  0.47553901  0.21182612  0.28866038     0.84000
O87         O  0.48391066  0.18092729  0.19752931    -0.77100
C88         C  0.44284981  0.30360784  0.19451331     0.84900
O89         O  0.55066085  0.19919410  0.22488272    -0.77200
C90         C  0.52770639  0.29926500  0.27858120     0.85000
C91         C  0.52721402  0.30558358  0.16073560     0.85300
O92         O  0.53815425  0.30477756  0.18795381    -0.79600
O93         O  0.19914833  0.27855339  0.48360204    -0.77100
C94         C  0.18856926  0.17946552  0.46111476     0.83900
O95         O  0.21510727  0.21635711  0.56256213    -0.78200
O96         O  0.28235290  0.16171725  0.51477315    -0.79700
O97         O  0.30102695  0.22979170  0.44568682    -0.79500
O98         O  0.24053690  0.29448223  0.45877273    -1.16500
Zn99       Zn  0.20806094  0.23489882  0.48654566     1.55700
O100        O  0.27341608  0.18720367  0.44336035    -0.79500
Cd101      Cd  0.27015094  0.25698667  0.47086855     1.59700
Cd102      Cd  0.25722198  0.23115423  0.54115236     1.59600
O103        O  0.29827708  0.28053990  0.49907176    -0.79500
O104        O  0.24858793  0.22759574  0.49682596    -1.90000
Cd105      Cd  0.25236772  0.18459009  0.48483310     1.59900
O106        O  0.27876794  0.27552578  0.54652008    -0.79500
O107        O  0.20862539  0.16635492  0.47837310    -0.78100
C108        C  0.18957689  0.21232430  0.54803024     0.84400
C109        C  0.21444990  0.30006326  0.47151577     0.84000
O110        O  0.19122765  0.20772700  0.45372692    -0.77100
C111        C  0.29923973  0.20061336  0.44217812     0.84900
O112        O  0.18617612  0.22014037  0.52029758    -0.77200
C113        C  0.29598630  0.28954298  0.52676335     0.85000
C114        C  0.29646705  0.17139163  0.53876873     0.85300
O115        O  0.29013387  0.19748524  0.55072789    -0.79600
O116        O  0.69961042  0.57040985  0.19075452    -0.77100
C117        C  0.79348334  0.54482693  0.20777924     0.83900
O118        O  0.70528541  0.46031894  0.21556955    -0.78200
O119        O  0.77890644  0.51994383  0.29221235    -0.79700
O120        O  0.69128702  0.58276917  0.27563828    -0.79500
O121        O  0.65842036  0.55100076  0.21371010    -0.78100
Zn122      Zn  0.72598888  0.53531424  0.20551928     1.55700
O123        O  0.73487582  0.57501946  0.30098272    -0.79500
Cd124      Cd  0.68106535  0.54222921  0.25515176     1.59700
Cd125      Cd  0.72398731  0.48187711  0.25584843     1.59600
O126        O  0.65862072  0.51359622  0.28635983    -0.79500
O127        O  0.72226781  0.52627264  0.24690549    -1.90000
Cd128      Cd  0.75563272  0.54957075  0.26610638     1.59900
O129        O  0.69172688  0.47450609  0.29003964    -0.79500
O130        O  0.79156990  0.55786986  0.23424319    -0.78100
C131        C  0.69779453  0.47451200  0.19056586     0.84400
C132        C  0.67057673  0.56628438  0.19176678     0.84000
O133        O  0.76948302  0.53536221  0.19410163    -0.77100
C134        C  0.70612367  0.58100475  0.30080267     0.84900
O135        O  0.70632184  0.50174851  0.18579689    -0.77200
C136        C  0.66721227  0.48821280  0.29863875     0.85000
C137        C  0.78454038  0.49145587  0.29231451     0.85300
O138        O  0.76813362  0.47234850  0.27661780    -0.79600
O139        O  0.05889368  0.31761479  0.30488220    -0.77100
C140        C  0.03300686  0.30165855  0.21193276     0.83900
O141        O  0.94826533  0.29442181  0.29942554    -0.78200
O142        O  0.01013372  0.21693421  0.22935494    -0.79700
O143        O  0.07086615  0.23234836  0.31643339    -0.79500
O144        O  0.03935578  0.29549805  0.34663513    -0.78100
Zn145      Zn  0.02341720  0.30344400  0.27947995     1.55700
O146        O  0.06578235  0.20873850  0.27207965    -0.79500
Cd147      Cd  0.03086176  0.25438079  0.32519457     1.59700
Cd148      Cd  0.97047119  0.25351675  0.28234213     1.59600
O149        O  0.00225285  0.22501076  0.34843767    -0.79500
O150        O  0.01493592  0.26234042  0.28392217    -1.90000
Cd151      Cd  0.03945317  0.24370840  0.25122722     1.59900
O152        O  0.96336999  0.21943406  0.31503088    -0.79500
O153        O  0.04617149  0.27522813  0.21405275    -0.78100
C154        C  0.96222138  0.31962165  0.30603068     0.84400
C155        C  0.05452699  0.31703261  0.33390918     0.84000
O156        O  0.02322446  0.31502964  0.23588737    -0.77100
C157        C  0.06855481  0.20751978  0.30142554     0.84900
O158        O  0.98990635  0.32374020  0.29862028    -0.77200
C159        C  0.97745490  0.21197203  0.33987672     0.85000
C160        C  0.98172496  0.21563086  0.22355642     0.85300
O161        O  0.96200586  0.23171246  0.23878475    -0.79600
O162        O  0.73364910  0.00193357  0.30846076    -0.77100
C163        C  0.83431676  0.97826169  0.31190953     0.83900
O164        O  0.80181106  0.07495183  0.26864254    -0.78200
O165        O  0.84349013  0.01608829  0.21093824    -0.79700
O166        O  0.77177117  0.95346154  0.20214772    -0.79500
O167        O  0.72027051  0.96492820  0.27537872    -0.78100
Zn168      Zn  0.77675140  0.00805647  0.29610717     1.55700
O169        O  0.81680016  0.94758018  0.22520742    -0.79500
Cd170      Cd  0.74898571  0.97786402  0.23765416     1.59700
Cd171      Cd  0.77732113  0.04720126  0.23628998     1.59600
O172        O  0.71977082  0.00324393  0.21172695    -0.79500
O173        O  0.78046108  0.00571643  0.25324000    -1.90000
Cd174      Cd  0.82179140  0.98970772  0.24443510     1.59900
O175        O  0.73264261  0.05287803  0.21636419    -0.79500
O176        O  0.84489275  0.98462866  0.28527329    -0.78100
C177        C  0.80721067  0.06858234  0.29706861     0.84400
C178        C  0.71492844  0.98145470  0.29944828     0.84000
O179        O  0.80552432  0.97898750  0.31724879    -0.77100
C180        C  0.80042923  0.94677548  0.20100343     0.84900
O181        O  0.79357343  0.04689402  0.31086038    -0.77200
C182        C  0.71525292  0.03141155  0.20573693     0.85000
C183        C  0.83168336  0.03671482  0.19350145     0.85300
O184        O  0.80534603  0.04821381  0.19889169    -0.79600
O185        O  0.67377169  0.81295778  0.49102806    -0.77100
C186        C  0.70593662  0.72008732  0.47310481     0.83900
O187        O  0.72867968  0.81034238  0.56855869    -0.78200
O188        O  0.79154927  0.73537642  0.49444232    -0.79700
O189        O  0.76646513  0.83186458  0.44412018    -0.79500
O190        O  0.70532210  0.85319826  0.48737412    -0.78100
Zn191      Zn  0.70215611  0.77987575  0.50648886     1.55700
O192        O  0.79213432  0.78771976  0.44458190    -0.79500
Cd193      Cd  0.74848431  0.83347092  0.48750225     1.59700
Cd194      Cd  0.76381695  0.78839345  0.54194434     1.59600
O195        O  0.78135742  0.85721944  0.51343356    -0.79500
O196        O  0.74418214  0.79044371  0.50079103    -1.90000
Cd197      Cd  0.76186435  0.76191268  0.47098610     1.59900
O198        O  0.79902466  0.81928828  0.54323367    -0.79500
O199        O  0.73019911  0.72755851  0.45807444    -0.78100
C200        C  0.70116084  0.80209564  0.56283441     0.84400
C201        C  0.67833537  0.84162375  0.48717215     0.84000
O202        O  0.69332674  0.73870555  0.49150895    -0.77100
C203        C  0.79122340  0.81676224  0.44047650     0.84900
O204        O  0.69754100  0.77603459  0.55089940    -0.77200
C205        C  0.80082859  0.84661971  0.53290346     0.85000
C206        C  0.79662883  0.72855975  0.52238683     0.85300
O207        O  0.78488997  0.74374739  0.54501650    -0.79600
C208        C  0.94757954  0.87399280  0.39639700     0.87900
C209        C  0.96872348  0.89319122  0.41749576    -0.52400
C210        C  0.95322144  0.91464779  0.43481378     0.10800
C211        C  0.91772901  0.91424142  0.42983789     0.21700
C212        C  0.92366885  0.85995696  0.41788637    -0.53100
C213        C  0.90670465  0.88041253  0.43414540     0.10900
C214        C  0.92904236  0.89824490  0.37811930    -0.52600
C215        C  0.91463995  0.91997391  0.39532499     0.11500
H216        H  0.99363071  0.89157287  0.41704280     0.16000
H217        H  0.90534939  0.93114501  0.44436067     0.01700
H218        H  0.91548182  0.83665593  0.41576656     0.16300
H219        H  0.92695257  0.89793233  0.35313943     0.16100
C220        C  0.87046890  0.11672623  0.44945750     0.87900
C221        C  0.85691101  0.09710165  0.42355822    -0.52400
C222        C  0.87754242  0.08570451  0.40319804     0.10800
C223        C  0.91131818  0.08934665  0.41463016     0.21700
C224        C  0.89116062  0.09428356  0.46750369    -0.53100
C225        C  0.91270326  0.07940896  0.44960411     0.10900
C226        C  0.89335743  0.13832653  0.43292246    -0.52600
C227        C  0.91503784  0.12424707  0.41550042     0.11500
H228        H  0.83289797  0.09729901  0.41724111     0.16000
H229        H  0.92846464  0.07756674  0.39988521     0.01700
H230        H  0.88936609  0.09098984  0.49224849     0.16300
H231        H  0.89168230  0.16322448  0.43367979     0.16100
C232        C  0.88888280  0.96707633  0.62969079     0.87900
C233        C  0.91000263  0.94412031  0.64650116    -0.52400
C234        C  0.92711685  0.92514965  0.62838001     0.10800
C235        C  0.92212800  0.93210622  0.59344454     0.21700
C236        C  0.91034035  0.98544690  0.60815086    -0.53100
C237        C  0.92790725  0.96734524  0.58887656     0.10900
C238        C  0.87042015  0.94646818  0.60784471    -0.52600
C239        C  0.88718352  0.92862734  0.58880168     0.11500
H240        H  0.90692082  0.93851540  0.67055754     0.16000
H241        H  0.93590956  0.91717748  0.57804998     0.01700
H242        H  0.91086803  0.01036219  0.60759353     0.16300
H243        H  0.84554068  0.94424609  0.60871618     0.16100
C244        C  0.11194967  0.05683985  0.36699963     0.87900
C245        C  0.09255882  0.03514925  0.38777611    -0.52400
C246        C  0.07156247  0.05065390  0.40605211     0.10800
C247        C  0.07239555  0.08633473  0.40148693     0.21700
C248        C  0.08759675  0.07507233  0.34913387    -0.53100
C249        C  0.06787736  0.09236282  0.36631974     0.10900
C250        C  0.12623441  0.07900944  0.39011360    -0.52600
C251        C  0.10616638  0.09503654  0.40741934     0.11500
H252        H  0.09553626  0.01047401  0.38908120     0.16000
H253        H  0.05577118  0.09863405  0.41637526     0.01700
H254        H  0.08970963  0.07775650  0.32435686     0.16300
H255        H  0.15083771  0.08350163  0.39114985     0.16100
C256        C  0.03754788  0.14299883  0.60378197     0.87900
C257        C  0.05987516  0.16004672  0.58273244    -0.52400
C258        C  0.08018991  0.14236401  0.56664260     0.10800
C259        C  0.07511654  0.10759218  0.57246465     0.21700
C260        C  0.02078646  0.12010039  0.58258259    -0.53100
C261        C  0.04022848  0.10115770  0.56612713     0.10900
C262        C  0.05902115  0.12286014  0.62343274    -0.52600
C263        C  0.07850669  0.10466327  0.60762725     0.11500
H264        H  0.06402729  0.18427097  0.58547025     0.16000
H265        H  0.09096559  0.09245591  0.55945844     0.01700
H266        H  0.99591227  0.11833148  0.58156293     0.16300
H267        H  0.06118316  0.12510012  0.64832569     0.16100
C268        C  0.12479156  0.89533562  0.55777351     0.87900
C269        C  0.10933756  0.91867197  0.53507762    -0.52400
C270        C  0.08961669  0.93914180  0.54942665     0.10800
C271        C  0.08763147  0.93426072  0.58492660     0.21700
C272        C  0.14019342  0.91559017  0.58167997    -0.53100
C273        C  0.12116622  0.93463581  0.59694350     0.10900
C274        C  0.09726256  0.88058146  0.57385220    -0.52600
C275        C  0.07793913  0.90056760  0.58802583     0.11500
H276        H  0.11141314  0.91793513  0.51023686     0.16000
H277        H  0.07203189  0.95047799  0.59695816     0.01700
H278        H  0.16435739  0.91326229  0.58798195     0.16300
H279        H  0.09387435  0.85585529  0.57480922     0.16100
O280        O  0.02558040  0.02575189  0.42520883    -0.77100
C281        C  0.96911634  0.93994903  0.45179769     0.83900
O282        O  0.94087889  0.05782372  0.49287152    -0.78200
O283        O  0.96560303  0.96087254  0.54947109    -0.79700
O284        O  0.07294408  0.98482279  0.52211955    -0.79500
O285        O  0.06370498  0.03506304  0.45860661    -0.78100
Zn286      Zn  0.98868725  0.00977702  0.45237259     1.55700
O287        O  0.03889012  0.94735499  0.53032339    -0.79500
Cd288      Cd  0.04577449  0.02067436  0.50178453     1.59700
Cd289      Cd  0.97284720  0.03500496  0.52273184     1.59600
O290        O  0.04850217  0.05894797  0.53150753    -0.79500
O291        O  0.00088086  0.00767045  0.49685807    -1.90000
Cd292      Cd  0.99682121  0.96392746  0.51301948     1.59900
O293        O  0.00002409  0.06893974  0.54525668    -0.79500
O294        O  0.97897139  0.93472573  0.47909250    -0.78100
C295        C  0.93686971  0.05836418  0.46348613     0.84400
C296        C  0.05275008  0.03576458  0.43111446     0.84000
O297        O  0.97161920  0.96658715  0.43916307    -0.77100
C298        C  0.06613650  0.95808708  0.53252928     0.84900
O299        O  0.95341972  0.04166455  0.44582124    -0.77200
C300        C  0.02889315  0.07503888  0.54640138     0.85000
C301        C  0.94857747  0.97984546  0.56392906     0.85300
O302        O  0.94856706  0.00857767  0.55691669    -0.79600
O303        O  0.80713880  0.24315050  0.48194501    -0.77100
C304        C  0.81302458  0.34610108  0.48253975     0.83900
O305        O  0.77419045  0.30739880  0.56376092    -0.78200
O306        O  0.70917646  0.34836722  0.51170466    -0.79700
O307        O  0.70282791  0.28681817  0.44192026    -0.79500
O308        O  0.76790225  0.22519145  0.45468512    -0.78100
Zn309      Zn  0.79610319  0.28239113  0.49823083     1.55700
O310        O  0.72746025  0.33126576  0.44226978    -0.79500
Cd311      Cd  0.73466321  0.25944787  0.46745851     1.59700
Cd312      Cd  0.73882567  0.28328853  0.53900890     1.59600
O313        O  0.70675556  0.23215266  0.49280750    -0.79500
O314        O  0.75337060  0.28832098  0.49655557    -1.90000
Cd315      Cd  0.74519497  0.33127507  0.48571450     1.59900
O316        O  0.72290180  0.23712579  0.54157623    -0.79500
O317        O  0.78579713  0.35593170  0.48759319    -0.78100
C318        C  0.80216471  0.30253124  0.55634721     0.84400
C319        C  0.79474177  0.22169304  0.46692357     0.84000
O320        O  0.81901466  0.31753579  0.48112585    -0.77100
C321        C  0.70302819  0.31602666  0.43751567     0.84900
O322        O  0.80800905  0.27843230  0.54150555    -0.77200
C323        C  0.70730332  0.22290544  0.52061087     0.85000
C324        C  0.69248790  0.33505770  0.53179716     0.85300
O325        O  0.69984588  0.30915315  0.54333567    -0.79600
O326        O  0.97013936  0.71213390  0.76375526    -0.77100
C327        C  0.94516089  0.70951968  0.66759406     0.83900
O328        O  0.04543508  0.73711740  0.70170944    -0.78200
O329        O  0.98531241  0.80713656  0.65491909    -0.79700
O330        O  0.92223809  0.81589462  0.72978783    -0.79500
O331        O  0.94586619  0.74963411  0.78778507    -0.78100
Zn332      Zn  0.97001469  0.72641566  0.72198135     1.55700
O333        O  0.91850674  0.78870726  0.68758036    -0.79500
Cd334      Cd  0.95162559  0.78369312  0.75203568     1.59700
Cd335      Cd  0.02130469  0.77759528  0.71882405     1.59600
O336        O  0.97980755  0.81182674  0.77454181    -0.79500
O337        O  0.97724552  0.76746195  0.71849596    -1.90000
Cd338      Cd  0.96087594  0.77354127  0.67694568     1.59900
O339        O  0.02827929  0.79971424  0.76227060    -0.79500
O340        O  0.95945101  0.73180358  0.65521741    -0.78100
C341        C  0.03148263  0.71166145  0.69614002     0.84400
C342        C  0.95948562  0.72332619  0.78825955     0.84000
O343        O  0.93673106  0.71082568  0.69560184    -0.77100
C344        C  0.91972832  0.81476291  0.70037978     0.84900
O345        O  0.00402691  0.70816362  0.70396875    -0.77200
C346        C  0.00849123  0.81455214  0.77870250     0.85000
C347        C  0.00990314  0.82088146  0.66288552     0.85300
O348        O  0.02574535  0.81261882  0.68641917    -0.79600
C349        C  0.10956888  0.57122232  0.62751326     0.87900
C350        C  0.08741856  0.59297472  0.64321211    -0.52400
C351        C  0.06748989  0.60748185  0.62427947     0.10800
C352        C  0.06823842  0.59574327  0.59063881     0.21700
C353        C  0.08814545  0.54707245  0.61199986    -0.53100
C354        C  0.06636124  0.56006278  0.59243851     0.10900
C355        C  0.12269718  0.58874647  0.59985356    -0.52600
C356        C  0.10128773  0.60110554  0.58042867     0.11500
H357        H  0.08985103  0.59945071  0.66734249     0.16000
H358        H  0.05079598  0.60648859  0.57519134     0.01700
H359        H  0.09113536  0.52244191  0.61379584     0.16300
H360        H  0.14725814  0.59108248  0.59591859     0.16100
C361        C  0.14279844  0.40982580  0.45889469     0.87900
C362        C  0.15414222  0.43739649  0.44019590    -0.52400
C363        C  0.13344989  0.44983423  0.41979432     0.10800
C364        C  0.10046336  0.43731856  0.42565896     0.21700
C365        C  0.11708543  0.42463633  0.47862687    -0.53100
C366        C  0.09480035  0.43950491  0.46114315     0.10900
C367        C  0.12555986  0.38908622  0.43645314    -0.52600
C368        C  0.10375537  0.40292368  0.41918581     0.11500
H369        H  0.17789483  0.44436471  0.44117185     0.16000
H370        H  0.08234537  0.44911546  0.41190099     0.01700
H371        H  0.11699979  0.42454926  0.50363754     0.16300
H372        H  0.13114381  0.36487162  0.43346942     0.16100
C373        C  0.87371725  0.62403602  0.54169406     0.87900
C374        C  0.89343132  0.60084085  0.52374944    -0.52400
C375        C  0.90994165  0.58080201  0.54222033     0.10800
C376        C  0.90366322  0.58539987  0.57768765     0.21700
C377        C  0.85346339  0.60464956  0.56317768    -0.53100
C378        C  0.86816750  0.58464497  0.58266920     0.10900
C379        C  0.89632115  0.63889875  0.56419801    -0.52600
C380        C  0.91169841  0.61930934  0.58299852     0.11500
H381        H  0.89576038  0.60166268  0.49885537     0.16000
H382        H  0.91675310  0.56942613  0.59285068     0.01700
H383        H  0.82974358  0.61100885  0.56712510     0.16300
H384        H  0.89725332  0.66347097  0.56840991     0.16100
C385        C  0.88234325  0.46042712  0.38043801     0.87900
C386        C  0.90770552  0.48187946  0.39430935    -0.52400
C387        C  0.92890435  0.46647394  0.41286575     0.10800
C388        C  0.92285277  0.43128237  0.41466242     0.21700
C389        C  0.90014849  0.43564077  0.36372700    -0.53100
C390        C  0.92024357  0.41967852  0.38111026     0.10900
C391        C  0.86904052  0.44510727  0.40919538    -0.52600
C392        C  0.88992430  0.42979519  0.42710971     0.11500
H393        H  0.90747272  0.50668386  0.39237632     0.16000
H394        H  0.93978699  0.41825701  0.42879936     0.01700
H395        H  0.89573852  0.42967375  0.33973638     0.16300
H396        H  0.84456736  0.44524284  0.41415491     0.16100
C397        C  0.94219938  0.38835098  0.61271821     0.87900
C398        C  0.91897187  0.37030535  0.59403100    -0.52400
C399        C  0.90336470  0.38642009  0.57240116     0.10800
C400        C  0.91477268  0.42021209  0.56900641     0.21700
C401        C  0.96472481  0.40170363  0.58835699    -0.53100
C402        C  0.95051490  0.41894443  0.56552514     0.10900
C403        C  0.92511604  0.41701702  0.62388884    -0.52600
C404        C  0.91114811  0.43397083  0.60125589     0.11500
H405        H  0.91293898  0.34671419  0.59975466     0.16000
H406        H  0.90293192  0.43349285  0.55053099     0.01700
H407        H  0.98948062  0.40178269  0.59099402     0.16300
H408        H  0.92424173  0.42339236  0.64808043     0.16100
C409        C  0.05272516  0.63573147  0.38569095     0.87900
C410        C  0.03299369  0.61483681  0.40670865    -0.52400
C411        C  0.05021271  0.59695198  0.42698293     0.10800
C412        C  0.08605852  0.60246364  0.42378786     0.21700
C413        C  0.07178076  0.65408609  0.40856709    -0.53100
C414        C  0.09094117  0.63777849  0.42736163     0.10900
C415        C  0.07455875  0.61323360  0.37017335    -0.52600
C416        C  0.09259737  0.59660537  0.38935215     0.11500
H417        H  0.00815003  0.61356679  0.40560155     0.16000
H418        H  0.10056244  0.58845614  0.43962782     0.01700
H419        H  0.07308365  0.67892417  0.40638801     0.16300
H420        H  0.07705712  0.61196573  0.34523957     0.16100
O421        O  0.04139419  0.44838982  0.47350142    -0.77100
C422        C  0.96759531  0.44361500  0.54837940     0.83900
O423        O  0.95100817  0.51046793  0.43992880    -0.78200
O424        O  0.94994695  0.54322145  0.54869893    -0.79700
O425        O  0.06112140  0.54021315  0.54154654    -0.79500
O426        O  0.07526403  0.48512385  0.48497571    -0.78100
Zn427      Zn  0.99855853  0.46576020  0.48735605     1.55700
O428        O  0.02231945  0.53178009  0.57415799    -0.79500
Cd429      Cd  0.04693808  0.52221852  0.49870586     1.59700
Cd430      Cd  0.97611943  0.53776187  0.47284907     1.59600
O431        O  0.05372311  0.55732690  0.46572553    -0.79500
O432        O  0.00195652  0.50935374  0.50070926    -1.90000
Cd433      Cd  0.98740614  0.51283300  0.54532142     1.59900
O434        O  0.00653274  0.56916500  0.44880187    -0.79500
O435        O  0.97032928  0.47005795  0.56097766    -0.78100
C436        C  0.95102801  0.48132938  0.43523011     0.84400
C437        C  0.06911753  0.45840745  0.47440058     0.84000
O438        O  0.97809630  0.43845989  0.52132483    -0.77100
C439        C  0.04915964  0.54238591  0.56837026     0.84900
O440        O  0.96847948  0.46351389  0.45102203    -0.77200
C441        C  0.03591669  0.57332708  0.44841686     0.85000
C442        C  0.93539069  0.56056101  0.52978276     0.85300
O443        O  0.94277628  0.56154337  0.50102583    -0.79600
C444        C  0.62079823  0.39390512  0.05325613     0.87900
C445        C  0.60500950  0.41909518  0.03288879    -0.52400
C446        C  0.58538026  0.43815353  0.04928714     0.10800
C447        C  0.58405394  0.43013954  0.08432470     0.21700
C448        C  0.63646346  0.41196663  0.07874424    -0.53100
C449        C  0.61768737  0.42952462  0.09585024     0.10900
C450        C  0.59353282  0.37774748  0.06814650    -0.52600
C451        C  0.57440813  0.39626673  0.08444567     0.11500
H452        H  0.60756221  0.42109158  0.00815493     0.16000
H453        H  0.56872415  0.44506188  0.09821079     0.01700
H454        H  0.66081048  0.40952611  0.08425610     0.16300
H455        H  0.59063909  0.35295479  0.06732079     0.16100
C456        C  0.54488776  0.65629324  0.10002147     0.87900
C457        C  0.56262193  0.67044700  0.07308093    -0.52400
C458        C  0.58406324  0.65192136  0.05947261     0.10800
C459        C  0.57951788  0.61768745  0.06971514     0.21700
C460        C  0.52615289  0.63094304  0.08368896    -0.53100
C461        C  0.54417905  0.61067456  0.06722697     0.10900
C462        C  0.56832705  0.63869762  0.11968900    -0.52600
C463        C  0.58617064  0.61854742  0.10449488     0.11500
H464        H  0.56002039  0.69442143  0.06741901     0.16000
H465        H  0.59373169  0.60096886  0.05676628     0.01700
H466        H  0.50130261  0.62914763  0.08467528     0.16300
H467        H  0.57121762  0.64254058  0.14433637     0.16100
C468        C  0.44623574  0.39180110  0.88960525     0.87900
C469        C  0.46773579  0.41129457  0.91043220    -0.52400
C470        C  0.45192231  0.42886667  0.93191647     0.10800
C471        C  0.41601567  0.42468771  0.92997350     0.21700
C472        C  0.42778456  0.37332335  0.91277736    -0.53100
C473        C  0.41024209  0.38961125  0.93275656     0.10900
C474        C  0.42453719  0.41558504  0.87570055    -0.52600
C475        C  0.40813651  0.43208780  0.89613824     0.11500
H476        H  0.49255003  0.41177122  0.90841503     0.16000
H477        H  0.40281752  0.43863130  0.94673331     0.01700
H478        H  0.42558377  0.34866441  0.90996238     0.16300
H479        H  0.42059332  0.41764723  0.85095753     0.16100
C480        C  0.35780888  0.61186148  0.96287266     0.87900
C481        C  0.34584188  0.59037354  0.93760803    -0.52400
C482        C  0.36739312  0.57802891  0.91855863     0.10800
C483        C  0.40054030  0.58734997  0.92794946     0.21700
C484        C  0.38144338  0.59222495  0.98108742    -0.53100
C485        C  0.40435525  0.57964339  0.96301947     0.10900
C486        C  0.37783044  0.63489010  0.94514440    -0.52600
C487        C  0.39937200  0.62260819  0.92636416     0.11500
H488        H  0.32195213  0.58956928  0.93103087     0.16000
H489        H  0.41830200  0.57653511  0.91324742     0.01700
H490        H  0.38084570  0.58955489  0.00596482     0.16300
H491        H  0.37417407  0.65953028  0.94619529     0.16100
C492        C  0.62488712  0.55876287  0.88544609     0.87900
C493        C  0.59873057  0.53883226  0.89980345    -0.52400
C494        C  0.57807976  0.55576335  0.91771217     0.10800
C495        C  0.58583101  0.59099692  0.91823627     0.21700
C496        C  0.60717746  0.58317556  0.86758165    -0.53100
C497        C  0.58922758  0.60203427  0.88433530     0.10900
C498        C  0.63863987  0.57428348  0.91408192    -0.52600
C499        C  0.61876816  0.59170069  0.93063626     0.11500
H500        H  0.59777683  0.51402387  0.89794059     0.16000
H501        H  0.56994670  0.60513595  0.93225228     0.01700
H502        H  0.61108191  0.58702192  0.84311768     0.16300
H503        H  0.66300615  0.57308921  0.91971754     0.16100
C504        C  0.40245404  0.46873354  0.14716667     0.87900
C505        C  0.42184310  0.44197601  0.15952310    -0.52400
C506        C  0.43491682  0.42388632  0.13781899     0.10800
C507        C  0.42961475  0.43612374  0.10430100     0.21700
C508        C  0.42465126  0.48765102  0.12670868    -0.53100
C509        C  0.43871142  0.47074092  0.10379067     0.10900
C510        C  0.38076650  0.45311417  0.12376231    -0.52600
C511        C  0.39462268  0.43703256  0.10080308     0.11500
H512        H  0.42068404  0.43367629  0.18299231     0.16000
H513        H  0.44168038  0.42261587  0.08639777     0.01700
H514        H  0.42703149  0.51238208  0.12858086     0.16300
H515        H  0.35592297  0.45348695  0.12618907     0.16100
O516        O  0.45883868  0.57164839  0.97236047    -0.77100
C517        C  0.53115855  0.58356847  0.05024064     0.83900
O518        O  0.55381359  0.51319761  0.94549632    -0.78200
O519        O  0.55076446  0.48053648  0.05315942    -0.79700
O520        O  0.44333662  0.48346183  0.04985870    -0.79500
O521        O  0.42608782  0.53660954  0.99064271    -0.78100
Zn522      Zn  0.50283794  0.55786752  0.98855526     1.55700
O523        O  0.48155948  0.49787251  0.08105788    -0.79500
Cd524      Cd  0.45596400  0.50074776  0.00547390     1.59700
Cd525      Cd  0.52647588  0.48670326  0.97737423     1.59600
O526        O  0.44982911  0.46567548  0.97276112    -0.79500
O527        O  0.50050506  0.51512264  0.00483748    -1.90000
Cd528      Cd  0.51566151  0.51349073  0.04944878     1.59900
O529        O  0.49610947  0.45657835  0.95241563    -0.79500
O530        O  0.53249256  0.55701711  0.06299197    -0.78100
C531        C  0.55432412  0.54216039  0.93959451     0.84400
C532        C  0.43123919  0.56173014  0.97609608     0.84000
O533        O  0.51916464  0.58727455  0.02334282    -0.77100
C534        C  0.45540889  0.48503605  0.07687809     0.84900
O535        O  0.53585013  0.56046689  0.95352373    -0.77200
C536        C  0.46700105  0.45139920  0.95364899     0.85000
C537        C  0.56362495  0.46122711  0.03512741     0.85300
O538        O  0.55700679  0.46036604  0.00620900    -0.79600
O539        O  0.23441994  0.53491585  0.69410670    -0.77100
C540        C  0.33808547  0.54279173  0.68771035     0.83900
O541        O  0.30201471  0.45225610  0.72148786    -0.78200
O542        O  0.34370415  0.50398886  0.78875483    -0.79700
O543        O  0.27673212  0.56847201  0.80023718    -0.79500
O544        O  0.22096921  0.56405110  0.73405488    -0.78100
Zn545      Zn  0.27543296  0.51911313  0.70283399     1.55700
O546        O  0.32096769  0.57282108  0.77584197    -0.79500
Cd547      Cd  0.25248124  0.54521884  0.76596342     1.59700
Cd548      Cd  0.27883325  0.47480035  0.75868053     1.59600
O549        O  0.22489097  0.51742688  0.79069051    -0.79500
O550        O  0.28204572  0.51796844  0.74566282    -1.90000
Cd551      Cd  0.32415519  0.53124716  0.75481052     1.59900
O552        O  0.23305498  0.46884435  0.77546869    -0.79500
O553        O  0.34833878  0.53596284  0.71450861    -0.78100
C554        C  0.29765731  0.46039046  0.69340211     0.84400
C555        C  0.21532381  0.55219256  0.70760974     0.84000
O556        O  0.30950367  0.54121449  0.68126500    -0.77100
C557        C  0.30562135  0.57365835  0.80064251     0.84900
O558        O  0.27470650  0.47705030  0.68693879    -0.77200
C559        C  0.21786573  0.48916702  0.79078160     0.85000
C560        C  0.33155209  0.48287848  0.80505832     0.85300
O561        O  0.30625679  0.47033669  0.79725280    -0.79600
C562        C  0.63639008  0.60956764  0.45114145     0.87900
C563        C  0.61360515  0.59044428  0.47076257    -0.52400
C564        C  0.59252155  0.57431851  0.45287815     0.10800
C565        C  0.59674076  0.57969157  0.41731506     0.21700
C566        C  0.65043078  0.58493292  0.43061756    -0.53100
C567        C  0.63114082  0.57279804  0.40956027     0.10900
C568        C  0.61491605  0.62963515  0.43131737    -0.52600
C569        C  0.59349471  0.61430325  0.41462838     0.11500
H570        H  0.61360357  0.58996304  0.49576189     0.16000
H571        H  0.58023802  0.56681887  0.40268867     0.01700
H572        H  0.67504284  0.58071509  0.42955117     0.16300
H573        H  0.61659179  0.65456314  0.43063273     0.16100
C574        C  0.60932473  0.45408821  0.62213241     0.87900
C575        C  0.58991217  0.47451945  0.60011677    -0.52400
C576        C  0.56928449  0.45810771  0.58212047     0.10800
C577        C  0.57064588  0.42238891  0.58841216     0.21700
C578        C  0.58503138  0.43680522  0.64031562    -0.53100
C579        C  0.56607081  0.41813908  0.62378366     0.10900
C580        C  0.62423844  0.43097413  0.60056652    -0.52600
C581        C  0.60463998  0.41393062  0.58360105     0.11500
H582        H  0.59212056  0.49922606  0.59836610     0.16000
H583        H  0.55446924  0.40866280  0.57420475     0.01700
H584        H  0.58652914  0.43591294  0.66530563     0.16300
H585        H  0.64895649  0.42689178  0.60019217     0.16100
C586        C  0.46047835  0.64321761  0.60321032     0.87900
C587        C  0.47849267  0.62054120  0.58253520    -0.52400
C588        C  0.45999862  0.60103237  0.56557569     0.10800
C589        C  0.42488760  0.60625714  0.57148834     0.21700
C590        C  0.43813806  0.65956668  0.58091424    -0.53100
C591        C  0.41762148  0.64087180  0.56641414     0.10900
C592        C  0.43928073  0.62247527  0.62247335    -0.52600
C593        C  0.42171597  0.60253180  0.60630006     0.11500
H594        H  0.50342110  0.61942537  0.58213327     0.16000
H595        H  0.40975085  0.59059000  0.55822397     0.01700
H596        H  0.43451716  0.68406208  0.58033766     0.16300
H597        H  0.43760393  0.62392782  0.64742840     0.16100
C598        C  0.39268926  0.55374328  0.35734569     0.87900
C599        C  0.41466524  0.57889255  0.34642368    -0.52400
C600        C  0.42301517  0.59947270  0.36832270     0.10800
C601        C  0.41491782  0.58838373  0.40142790     0.21700
C602        C  0.41288451  0.53574567  0.38064081    -0.53100
C603        C  0.42507076  0.55373672  0.40380466     0.10900
C604        C  0.36853886  0.57003602  0.37745459    -0.52600
C605        C  0.37970456  0.58769175  0.40066891     0.11500
H606        H  0.42126919  0.58276707  0.32280943     0.16000
H607        H  0.42477951  0.60290232  0.41996639     0.01700
H608        H  0.41741535  0.51128568  0.37893708     0.16300
H609        H  0.34406966  0.56906091  0.37224865     0.16100
C610        C  0.54807206  0.38514825  0.37637548     0.87900
C611        C  0.57109050  0.36676839  0.39596283    -0.52400
C612        C  0.58849411  0.38305953  0.41627132     0.10800
C613        C  0.58051710  0.41804853  0.41537560     0.21700
C614        C  0.52820755  0.40298341  0.39968580    -0.53100
C615        C  0.54482953  0.42061675  0.42013290     0.10900
C616        C  0.56855937  0.40961231  0.36143594    -0.52600
C617        C  0.58538544  0.42676259  0.38122438     0.11500
H618        H  0.57673018  0.34313208  0.39047427     0.16000
H619        H  0.59417177  0.43220832  0.43164973     0.01700
H620        H  0.50325520  0.40311246  0.39886104     0.16300
H621        H  0.57280724  0.41123667  0.33686896     0.16100
C622        C  0.37689292  0.39435270  0.55260905     0.87900
C623        C  0.35987841  0.41383428  0.57595493    -0.52400
C624        C  0.37695386  0.43510170  0.59062041     0.10800
C625        C  0.41042830  0.43729612  0.57844099     0.21700
C626        C  0.39036262  0.41798166  0.52910720    -0.53100
C627        C  0.40850391  0.44043088  0.54269695     0.10900
C628        C  0.40587386  0.38265719  0.56910018    -0.52600
C629        C  0.42339714  0.40485731  0.58249142     0.11500
H630        H  0.33640933  0.40881418  0.58296907     0.16000
H631        H  0.42448050  0.45529966  0.58980782     0.01700
H632        H  0.38913008  0.41531756  0.50430934     0.16300
H633        H  0.41173886  0.35840467  0.57059639     0.16100
O634        O  0.45863710  0.44695268  0.52022672    -0.77100
C635        C  0.52974053  0.44437274  0.44037468     0.83900
O636        O  0.54920653  0.50239915  0.55411267    -0.78200
O637        O  0.54786996  0.54317720  0.44625400    -0.79700
O638        O  0.43519435  0.53885392  0.45649527    -0.79500
O639        O  0.42638075  0.48707232  0.51855915    -0.78100
Zn640      Zn  0.50149223  0.46258024  0.50448339     1.55700
O641        O  0.47274982  0.53146701  0.42226726    -0.79500
Cd642      Cd  0.45390748  0.52248626  0.49904518     1.59700
Cd643      Cd  0.52665964  0.53267694  0.52193114     1.59600
O644        O  0.45230302  0.55989818  0.52973537    -0.79500
O645        O  0.49820038  0.50731597  0.49397119    -1.90000
Cd646      Cd  0.51020560  0.51330082  0.44900578     1.59900
O647        O  0.50059322  0.56776141  0.54551893    -0.79500
O648        O  0.52718687  0.47185632  0.43009846    -0.78100
C649        C  0.54903644  0.47305960  0.55779256     0.84400
C650        C  0.43212956  0.45897584  0.52548307     0.84000
O651        O  0.51984864  0.43718652  0.46731510    -0.77100
C652        C  0.44550781  0.54074283  0.42890854     0.84900
O653        O  0.53218254  0.45603716  0.54070047    -0.77200
C654        C  0.47184510  0.57496262  0.54578247     0.85000
C655        C  0.56595207  0.55618661  0.46551247     0.85300
O656        O  0.56147569  0.55418410  0.49470072    -0.79600
O657        O  0.45614506  0.69550217  0.80741192    -0.77100
C658        C  0.47515949  0.71088909  0.71426612     0.83900
O659        O  0.56228234  0.73132277  0.80423538    -0.78200
O660        O  0.49579999  0.79621536  0.72508509    -0.79700
O661        O  0.43619274  0.78261166  0.81560505    -0.79500
O662        O  0.46932073  0.72374964  0.84831950    -0.78100
Zn663      Zn  0.49037336  0.71130282  0.78148866     1.55700
O664        O  0.44142000  0.80581354  0.77095286    -0.79500
Cd665      Cd  0.47779947  0.76382360  0.82458467     1.59700
Cd666      Cd  0.53654950  0.76619772  0.78099130     1.59600
O667        O  0.50460141  0.79795344  0.84496715    -0.79500
O668        O  0.49344469  0.75359797  0.78373849    -1.90000
Cd669      Cd  0.46782292  0.77046291  0.75070025     1.59900
O670        O  0.54020587  0.80392491  0.80871955    -0.79500
O671        O  0.45944689  0.73583624  0.71727716    -0.78100
C672        C  0.55128067  0.70569942  0.81382020     0.84400
C673        C  0.45654283  0.70018273  0.83642811     0.84000
O674        O  0.48935453  0.69903553  0.73721414    -0.77100
C675        C  0.43637077  0.80717643  0.79995423     0.84900
O676        O  0.52552287  0.69572876  0.80456230    -0.77200
C677        C  0.52728410  0.81263922  0.83349429     0.85000
C678        C  0.52420780  0.79807868  0.71929563     0.85300
O679        O  0.54442073  0.78388120  0.73589535    -0.79600
O680        O  0.30609232  0.99597228  0.17183494    -0.77100
C681        C  0.21800301  0.97238320  0.20627469     0.83900
O682        O  0.29987451  0.07628308  0.21958393    -0.78200
O683        O  0.22907680  0.00361595  0.28820377    -0.79700
O684        O  0.33480652  0.96252007  0.27304137    -0.79500
O685        O  0.34775813  0.99570205  0.20222136    -0.78100
Zn686      Zn  0.27314878  0.01182622  0.19917942     1.55700
O687        O  0.28875685  0.95899722  0.29512873    -0.79500
Cd688      Cd  0.32891148  0.00074345  0.24574734     1.59700
Cd689      Cd  0.27938731  0.05143618  0.25675945     1.59600
O690        O  0.35006982  0.03268203  0.27421082    -0.79500
O691        O  0.28475955  0.00942361  0.24111442    -1.90000
Cd692      Cd  0.25927523  0.97937795  0.26229259     1.59900
O693        O  0.30867977  0.05575530  0.29348644    -0.79500
O694        O  0.22743483  0.95897852  0.23106624    -0.78100
C695        C  0.29132804  0.06867688  0.19252818     0.84400
C696        C  0.33493803  0.99262349  0.17578359     0.84000
O697        O  0.23380804  0.99270636  0.19289371    -0.77100
C698        C  0.31817393  0.95679187  0.29646476     0.84900
O699        O  0.26598911  0.05500284  0.19000490    -0.77200
C700        C  0.33703390  0.04856260  0.29514391     0.85000
C701        C  0.21937859  0.03114709  0.28889282     0.85300
O702        O  0.23366706  0.05296251  0.27470945    -0.79600
O703        O  0.29792101  0.73835415  0.96567110    -0.77100
C704        C  0.30261515  0.83887553  0.94180522     0.83900
O705        O  0.28639752  0.80179869  0.04314921    -0.78200
O706        O  0.20880766  0.84934220  0.99480789    -0.79700
O707        O  0.19126187  0.78058600  0.93107517    -0.79500
O708        O  0.25319670  0.71640090  0.95421025    -0.78100
Zn709      Zn  0.28854369  0.78237509  0.96720054     1.55700
O710        O  0.21902936  0.82221437  0.92417339    -0.79500
Cd711      Cd  0.22415314  0.75630459  0.95826944     1.59700
Cd712      Cd  0.24353212  0.78493159  0.02437052     1.59600
O713        O  0.19534737  0.73979205  0.99019727    -0.79500
O714        O  0.24821356  0.78764356  0.97950394    -1.90000
Cd715      Cd  0.23995540  0.82901352  0.96532726     1.59900
O716        O  0.22478272  0.73994911  0.03239719    -0.79500
O717        O  0.28167350  0.85039125  0.95879479    -0.78100
C718        C  0.31105982  0.80708295  0.02768798     0.84400
C719        C  0.28161828  0.71439149  0.96258598     0.84000
O720        O  0.30146790  0.81079468  0.93335336    -0.77100
C721        C  0.19292263  0.80941681  0.92510534     0.84900
O722        O  0.31307063  0.79896309  0.99989706    -0.77200
C723        C  0.20323989  0.72800632  0.01576439     0.85000
C724        C  0.19778049  0.83990640  0.02036170     0.85300
O725        O  0.20857341  0.81610136  0.03406303    -0.79600
C726        C  0.39315667  0.96422373  0.86170616     0.87900
C727        C  0.41361452  0.98343557  0.88361471    -0.52400
C728        C  0.43127381  0.96573019  0.90340773     0.10800
C729        C  0.42657962  0.93026439  0.89895342     0.21700
C730        C  0.41622762  0.94319258  0.84554727    -0.53100
C731        C  0.43257159  0.92369111  0.86418469     0.10900
C732        C  0.37489263  0.94397295  0.88369807    -0.52600
C733        C  0.39167156  0.92551658  0.90230790     0.11500
H734        H  0.41392625  0.00828015  0.88443392     0.16000
H735        H  0.44066534  0.91615597  0.91506657     0.01700
H736        H  0.41574999  0.94095777  0.82064828     0.16300
H737        H  0.34994638  0.94202719  0.88245093     0.16100
C738        C  0.62580667  0.89505277  0.94827054     0.87900
C739        C  0.64513324  0.91585839  0.92743109    -0.52400
C740        C  0.62928215  0.93630450  0.90941910     0.10800
C741        C  0.59391072  0.93449621  0.91476094     0.21700
C742        C  0.60580412  0.91713778  0.96760013    -0.53100
C743        C  0.58865505  0.93786182  0.95043353     0.10900
C744        C  0.60334722  0.88054807  0.92533739    -0.52600
C745        C  0.58654630  0.90056738  0.90824805     0.11500
H746        H  0.66920000  0.91117685  0.92304655     0.16000
H747        H  0.58037412  0.95074480  0.90027863     0.01700
H748        H  0.60443567  0.91560305  0.99253779     0.16300
H749        H  0.60211770  0.85603774  0.92090326     0.16100
C750        C  0.44948177  0.88519471  0.11138622     0.87900
C751        C  0.43070803  0.86558060  0.08921479    -0.52400
C752        C  0.41414980  0.88138293  0.06806634     0.10800
C753        C  0.42074861  0.91635930  0.06818193     0.21700
C754        C  0.47166052  0.90345543  0.08980338    -0.53100
C755        C  0.45647592  0.92030985  0.06714526     0.10900
C756        C  0.42768898  0.91017289  0.12314683    -0.52600
C757        C  0.41301591  0.92658410  0.10082194     0.11500
H758        H  0.42741804  0.84103975  0.09268093     0.16000
H759        H  0.40781319  0.92931297  0.05020851     0.01700
H760        H  0.49632916  0.90476951  0.09284259     0.16300
H761        H  0.42437217  0.91479401  0.14754226     0.16100
C762        C  0.37040126  0.12060479  0.04747986     0.87900
C763        C  0.38998757  0.09958778  0.02656144    -0.52400
C764        C  0.40697136  0.07771098  0.04238338     0.10800
C765        C  0.40237627  0.07890932  0.07806331     0.21700
C766        C  0.35127299  0.09865935  0.06729334    -0.53100
C767        C  0.36718940  0.07720304  0.08402596     0.10900
C768        C  0.39353912  0.13344389  0.07089773    -0.52600
C769        C  0.41026647  0.11214575  0.08643165     0.11500
H770        H  0.39173064  0.10293971  0.00182383     0.16000
H771        H  0.41607305  0.06156612  0.09104970     0.01700
H772        H  0.32761649  0.10376842  0.07295997     0.16300
H773        H  0.39545225  0.15765622  0.07657627     0.16100
C774        C  0.55169393  0.13282588  0.88168915     0.87900
C775        C  0.52952564  0.11857615  0.90574822    -0.52400
C776        C  0.54451587  0.10127085  0.92806082     0.10800
C777        C  0.58012697  0.10088956  0.92447620     0.21700
C778        C  0.57439944  0.15113369  0.90091848    -0.53100
C779        C  0.59067178  0.13490770  0.92190639     0.10900
C780        C  0.56925313  0.10455597  0.86989766    -0.52600
C781        C  0.58399183  0.08780348  0.89211595     0.11500
H782        H  0.50471201  0.11852574  0.90346232     0.16000
H783        H  0.59224263  0.08758010  0.94275991     0.01700
H784        H  0.58042229  0.17473756  0.89518014     0.16300
H785        H  0.57030182  0.09859753  0.84560699     0.16100
C786        C  0.61779557  0.05833625  0.11949529     0.87900
C787        C  0.59849491  0.08228698  0.13671762    -0.52400
C788        C  0.57987363  0.10044859  0.11907649     0.10800
C789        C  0.58207380  0.09264253  0.08428929     0.21700
C790        C  0.59456337  0.03961704  0.10034625    -0.53100
C791        C  0.57573918  0.05710232  0.08148971     0.10900
C792        C  0.63478368  0.07798378  0.09574658    -0.52600
C793        C  0.61674421  0.09606727  0.07766705     0.11500
H794        H  0.60238848  0.08772353  0.16080622     0.16000
H795        H  0.56736081  0.10740583  0.06935488     0.01700
H796        H  0.59373565  0.01471112  0.10103230     0.16300
H797        H  0.65957094  0.08097848  0.09582854     0.16100
O798        O  0.47710696  0.98967174  0.92372971    -0.77100
C799        C  0.52878608  0.07698863  0.94653473     0.83900
O800        O  0.55988927  0.95906674  0.99377847    -0.78200
O801        O  0.53507063  0.06104551  0.04406520    -0.79700
O802        O  0.42671533  0.03203929  0.01769875    -0.79500
O803        O  0.43846381  0.98060680  0.95614313    -0.78100
Zn804      Zn  0.51274077  0.00692813  0.95126384     1.55700
O805        O  0.45908715  0.07096986  0.02576038    -0.79500
Cd806      Cd  0.45538320  0.99685153  0.99893153     1.59700
Cd807      Cd  0.52791346  0.98369667  0.02282088     1.59600
O808        O  0.45273682  0.95988184  0.02941669    -0.79500
O809        O  0.49998453  0.01036555  0.99523476    -1.90000
Cd810      Cd  0.50209201  0.05523211  0.00901050     1.59900
O811        O  0.49993858  0.95072388  0.04789455    -0.79500
O812        O  0.51809418  0.08358785  0.97309616    -0.78100
C813        C  0.56470834  0.95901058  0.96447582     0.84400
C814        C  0.45002198  0.97944457  0.92908093     0.84000
O815        O  0.52803685  0.04949501  0.93602640    -0.77100
C816        C  0.43217177  0.05922824  0.02757603     0.84900
O817        O  0.54877473  0.97621305  0.94651748    -0.77200
C818        C  0.47093956  0.94463906  0.04691854     0.85000
C819        C  0.55327639  0.04306456  0.05872507     0.85300
O820        O  0.55309186  0.01382866  0.05374457    -0.79600
O821        O  0.97554536  0.83081033  0.18970578    -0.77100
C822        C  0.96216943  0.80421602  0.28565532     0.83900
O823        O  0.05768336  0.78179266  0.19605015    -0.78200
O824        O  0.98956506  0.71942903  0.27663943    -0.79700
O825        O  0.93704106  0.73585267  0.17921521    -0.79500
O826        O  0.97531231  0.79680633  0.15149307    -0.78100
Zn827      Zn  0.99383569  0.80639344  0.22442043     1.55700
O828        O  0.93954455  0.71102748  0.22354109    -0.79500
Cd829      Cd  0.97884325  0.75588245  0.17517659     1.59700
Cd830      Cd  0.03341265  0.74733053  0.22108888     1.59600
O831        O  0.00632738  0.72278386  0.15456474    -0.79500
O832        O  0.99127707  0.76369701  0.21794627    -1.90000
Cd833      Cd  0.96320001  0.74523201  0.24822069     1.59900
O834        O  0.03628592  0.70916420  0.19400543    -0.79500
O835        O  0.94874435  0.77833216  0.28110075    -0.78100
C836        C  0.05048837  0.80964513  0.20147817     0.84400
C837        C  0.97217175  0.82426022  0.16127905     0.84000
O838        O  0.97863409  0.81634475  0.26499201    -0.77100
C839        C  0.93667892  0.71073783  0.19414895     0.84900
O840        O  0.03763742  0.81535803  0.22679938    -0.77200
C841        C  0.02595896  0.70462833  0.16691513     0.85000
C842        C  0.01787281  0.71755894  0.28352511     0.85300
O843        O  0.03863842  0.73090677  0.26711512    -0.79600
O844        O  0.81261331  0.21664214  0.95023981    -0.77100
C845        C  0.78666306  0.30591223  0.96250518     0.83900
O846        O  0.78392193  0.21992173  0.05600925    -0.78200
O847        O  0.70481633  0.28816338  0.99040517    -0.79700
O848        O  0.72645218  0.19162682  0.93521047    -0.79500
O849        O  0.79320099  0.17422785  0.97121007    -0.78100
Zn850      Zn  0.79479863  0.24268184  0.98312576     1.55700
O851        O  0.69963037  0.23506008  0.93906765    -0.79500
Cd852      Cd  0.74963906  0.19202242  0.97624869     1.59700
Cd853      Cd  0.74380934  0.23732579  0.03277371     1.59600
O854        O  0.72061210  0.16912923  0.00579821    -0.79500
O855        O  0.75374474  0.23447356  0.98911440    -1.90000
Cd856      Cd  0.73160524  0.26289182  0.96253879     1.59900
O857        O  0.70927604  0.20569658  0.03986338    -0.79500
O858        O  0.76192002  0.29844357  0.94791890    -0.78100
C859        C  0.81090697  0.21722001  0.04435161     0.84400
C860        C  0.81418714  0.18796115  0.95609381     0.84000
O861        O  0.80115926  0.28655132  0.97890576    -0.77100
C862        C  0.70124801  0.20632049  0.93289538     0.84900
O863        O  0.81722830  0.22788172  0.01806858    -0.77200
C864        C  0.70428935  0.17944991  0.02783345     0.85000
C865        C  0.70636204  0.29608860  0.01848840     0.85300
O866        O  0.72340954  0.28159412  0.03821189    -0.79600
O867        O  0.19411246  0.07708733  0.69820119    -0.77100
C868        C  0.29068457  0.05372663  0.71754476     0.83900
O869        O  0.20271085  0.96947135  0.71972324    -0.78200
O870        O  0.27107353  0.02503571  0.80340104    -0.79700
O871        O  0.18397769  0.08998465  0.78223215    -0.79500
O872        O  0.15508977  0.05344321  0.72104159    -0.78100
Zn873      Zn  0.22309462  0.04402566  0.71179128     1.55700
O874        O  0.22743398  0.08292572  0.80832831    -0.79500
Cd875      Cd  0.17808709  0.04842696  0.76217318     1.59700
Cd876      Cd  0.22252580  0.99008208  0.75988516     1.59600
O877        O  0.15861356  0.01931381  0.79415275    -0.79500
O878        O  0.21914422  0.03426640  0.75299268    -1.90000
Cd879      Cd  0.25090192  0.05630089  0.77558123     1.59900
O880        O  0.19343279  0.98155292  0.79680947    -0.79500
O881        O  0.28847076  0.06402517  0.74522523    -0.78100
C882        C  0.19670004  0.98317815  0.69409662     0.84400
C883        C  0.16586258  0.06910667  0.69870087     0.84000
O884        O  0.26685153  0.04686047  0.70202431    -0.77100
C885        C  0.19894308  0.09043541  0.80738992     0.84900
O886        O  0.20598648  0.01017564  0.68918899    -0.77200
C887        C  0.16891897  0.99465469  0.80646882     0.85000
C888        C  0.28331032  0.00046045  0.79377359     0.85300
O889        O  0.26936652  0.98350972  0.77382916    -0.79600
C890        C  0.12169742  0.13538641  0.95780324     0.87900
C891        C  0.10836517  0.10955643  0.97868054    -0.52400
C892        C  0.09220952  0.08739476  0.96244094     0.10800
C893        C  0.09198468  0.09309856  0.92695566     0.21700
C894        C  0.14098983  0.11864515  0.93417378    -0.53100
C895        C  0.12601973  0.09758150  0.91713439     0.10900
C896        C  0.09290497  0.14686591  0.94065317    -0.52600
C897        C  0.07740893  0.12511042  0.92428082     0.11500
H898        H  0.10825010  0.11061213  0.00365809     0.16000
H899        H  0.07972998  0.07504108  0.91376447     0.01700
H900        H  0.16429342  0.12581597  0.92857153     0.16300
H901        H  0.08564948  0.17074143  0.94109800     0.16100
C902        C  0.11281151  0.94803623  0.12737425     0.87900
C903        C  0.09218203  0.97111349  0.10919725    -0.52400
C904        C  0.07261531  0.95721029  0.08818252     0.10800
C905        C  0.07569645  0.92124527  0.08781938     0.21700
C906        C  0.08986114  0.92605274  0.14175628    -0.53100
C907        C  0.07101536  0.91107510  0.12181380     0.10900
C908        C  0.12894314  0.93024217  0.10196381    -0.52600
C909        C  0.11023370  0.91540710  0.08204496     0.11500
H910        H  0.09333509  0.99584028  0.11142275     0.16000
H911        H  0.06037067  0.90942640  0.07112589     0.01700
H912        H  0.09050799  0.92066243  0.16626681     0.16300
H913        H  0.15381611  0.92740661  0.10125909     0.16100
C914        C  0.94937324  0.13519955  0.12033271     0.87900
C915        C  0.97083470  0.11648850  0.09882237    -0.52400
C916        C  0.95522413  0.10032704  0.07626657     0.10800
C917        C  0.91944625  0.10491261  0.07755608     0.21700
C918        C  0.93094205  0.15523810  0.09822559    -0.53100
C919        C  0.91390874  0.14030556  0.07670572     0.10900
C920        C  0.92739337  0.11107927  0.13259081    -0.52600
C921        C  0.91139431  0.09566968  0.11085787     0.11500
H922        H  0.99551306  0.11457776  0.10153718     0.16000
H923        H  0.90641800  0.09197071  0.05979142     0.01700
H924        H  0.92861661  0.17973594  0.10233678     0.16300
H925        H  0.92335747  0.10758650  0.15710978     0.16100
C926        C  0.86646762  0.90841798  0.04292940     0.87900
C927        C  0.85025765  0.92833309  0.06693230    -0.52400
C928        C  0.86889177  0.94371942  0.08661229     0.10800
C929        C  0.90367244  0.94026426  0.07818583     0.21700
C930        C  0.88732941  0.93065134  0.02469481    -0.53100
C931        C  0.90735167  0.94728123  0.04294144     0.10900
C932        C  0.88926894  0.88930293  0.06263610    -0.52600
C933        C  0.90965110  0.90568279  0.07983853     0.11500
H934        H  0.82622183  0.92545906  0.07274093     0.16000
H935        H  0.91915254  0.95412996  0.09295942     0.01700
H936        H  0.88765084  0.93153691  0.99968823     0.16300
H937        H  0.88878691  0.86440429  0.06379626     0.16100
C938        C  0.04677423  0.89523539  0.87948623     0.87900
C939        C  0.06518795  0.87387226  0.90047888    -0.52400
C940        C  0.08441351  0.88747257  0.92098401     0.10800
C941        C  0.08056875  0.92315975  0.92078158     0.21700
C942        C  0.02743660  0.91448733  0.90240461    -0.53100
C943        C  0.04512104  0.92960200  0.92425258     0.10900
C944        C  0.06929074  0.91853546  0.86632573    -0.52600
C945        C  0.08742181  0.93259287  0.88723912     0.11500
H946        H  0.06605963  0.84940971  0.89572315     0.16000
H947        H  0.09517110  0.93504922  0.93804220     0.01700
H948        H  0.00269344  0.91709639  0.90118574     0.16300
H949        H  0.07204093  0.92234095  0.84167155     0.16100
C950        C  0.90013822  0.06277757  0.86676450     0.87900
C951        C  0.92333814  0.08390105  0.85095540    -0.52400
C952        C  0.93989854  0.10278309  0.86998534     0.10800
C953        C  0.93280781  0.09683632  0.90452929     0.21700
C954        C  0.91929539  0.04391896  0.89006916    -0.53100
C955        C  0.93644005  0.06143271  0.91022515     0.10900
C956        C  0.88148069  0.08498221  0.88668516    -0.52600
C957        C  0.89807128  0.10255754  0.90617765     0.11500
H958        H  0.92229176  0.08857916  0.82659603     0.16000
H959        H  0.94641438  0.11135168  0.92053594     0.01700
H960        H  0.91849750  0.01902190  0.89115200     0.16300
H961        H  0.85679305  0.08831175  0.88404478     0.16100
O962        O  0.97807722  0.08339650  0.02857522    -0.77100
C963        C  0.06853369  0.06685987  0.97681155     0.83900
O964        O  0.95394920  0.01848959  0.94133028    -0.78200
O965        O  0.05117017  0.96789015  0.96329085    -0.79700
O966        O  0.02654783  0.98491856  0.07287713    -0.79500
O967        O  0.97569957  0.04982510  0.06756867    -0.78100
Zn968      Zn  0.99842289  0.05929668  0.99226979     1.55700
O969        O  0.06440203  0.98017324  0.03848185    -0.79500
Cd970      Cd  0.99049904  0.00780268  0.04763581     1.59700
Cd971      Cd  0.97521228  0.98899142  0.97454900     1.59600
O972        O  0.95136804  0.97958365  0.04987663    -0.79500
O973        O  0.00271188  0.01479910  0.00279925    -1.90000
Cd974      Cd  0.04748803  0.00145226  0.99774691     1.59900
O975        O  0.93982466  0.96676113  0.00137915    -0.79500
O976        O  0.07530849  0.03891692  0.98332752    -0.78100
C977        C  0.95463448  0.04760427  0.93655636     0.84400
C978        C  0.97068149  0.07669029  0.05637680     0.84000
O979        O  0.04106979  0.07717402  0.98001091    -0.77100
C980        C  0.05341961  0.97519314  0.06538139     0.84900
O981        O  0.97032390  0.06522989  0.95409785    -0.77200
C982        C  0.93407845  0.96574513  0.03048211     0.85000
C983        C  0.03220670  0.95245940  0.94696728     0.85300
O984        O  0.00299910  0.95677925  0.94924217    -0.79600
O985        O  0.30853907  0.32929884  0.05890980    -0.77100
C986        C  0.29834549  0.23147959  0.04399865     0.83900
O987        O  0.27851390  0.31205914  0.95260642    -0.78200
O988        O  0.20897214  0.23852524  0.02059904    -0.79700
O989        O  0.22640875  0.32952449  0.07868655    -0.79500
O990        O  0.28023770  0.36648742  0.03818047    -0.78100
Zn991      Zn  0.29350628  0.29807402  0.02911230     1.55700
O992        O  0.20265041  0.28526312  0.07695694    -0.79500
Cd993      Cd  0.24072719  0.34038525  0.03594429     1.59700
Cd994      Cd  0.24033409  0.29491314  0.97819103     1.59600
O995        O  0.20547136  0.35906731  0.00899687    -0.79500
O996        O  0.25130804  0.29864657  0.02206268    -1.90000
Cd997      Cd  0.23580234  0.26458120  0.04808201     1.59900
O998        O  0.20491220  0.32550133  0.97042757    -0.79500
O999        O  0.27148377  0.23164413  0.05630302    -0.78100
C1000       C  0.30428432  0.31975978  0.96482656     0.84400
C1001       C  0.30500847  0.35741712  0.05123816     0.84000
O1002       O  0.30977130  0.25597725  0.03314301    -0.77100
C1003       C  0.20149003  0.31461530  0.07820606     0.84900
O1004       O  0.31053791  0.31430469  0.99267776    -0.77200
C1005       C  0.19407553  0.34926642  0.98367735     0.85000
C1006       C  0.20667349  0.23372744  0.99184515     0.85300
O1007       O  0.22029806  0.25077227  0.97179506    -0.79600
O1008       O  0.80683951  0.50847383  0.66720342    -0.77100
C1009       C  0.71636164  0.48340846  0.69787863     0.83900
O1010       O  0.79972989  0.58516809  0.72002217    -0.78200
O1011       O  0.72701572  0.50897515  0.78545719    -0.79700
O1012       O  0.82882970  0.46500631  0.76239058    -0.79500
O1013       O  0.84710481  0.50624665  0.69917790    -0.78100
Zn1014     Zn  0.77266518  0.52222938  0.69500751     1.55700
O1015       O  0.78451584  0.46297910  0.78731802    -0.79500
Cd1016     Cd  0.82692566  0.50717854  0.74203865     1.59700
Cd1017     Cd  0.77897481  0.55849929  0.75635030     1.59600
O1018       O  0.84929617  0.53430130  0.77449212    -0.79500
O1019       O  0.78286800  0.51746234  0.73750640    -1.90000
Cd1020     Cd  0.75582809  0.48661220  0.75619601     1.59900
O1021       O  0.80958189  0.56099764  0.79220891    -0.79500
O1022       O  0.72405675  0.46968331  0.72308291    -0.78100
C1023       C  0.79119084  0.57901773  0.69253100     0.84400
C1024       C  0.83557843  0.50503857  0.67205526     0.84000
O1025       O  0.73339292  0.50351022  0.68567353    -0.77100
C1026       C  0.81392669  0.46120027  0.78723763     0.84900
O1027       O  0.76559130  0.56597158  0.68932842    -0.77200
C1028       C  0.83727427  0.55181588  0.79467016     0.85000
C1029       C  0.72019699  0.53669881  0.79144491     0.85300
O1030       O  0.73496446  0.55935686  0.77906707    -0.79600
O1031       O  0.01345168  0.20311309  0.73335623    -0.77100
C1032       C  0.01732546  0.19676917  0.83727970     0.83900
O1033       O  0.93405656  0.23799679  0.80145200    -0.78200
O1034       O  0.98856174  0.30006222  0.84324859    -0.79700
O1035       O  0.05489152  0.30772307  0.77423113    -0.79500
O1036       O  0.03718205  0.24313102  0.71265166    -0.78100
Zn1037     Zn  0.99878911  0.21491722  0.77320822     1.55700
O1038       O  0.05711798  0.28220314  0.81829019    -0.79500
Cd1039     Cd  0.02801219  0.27593392  0.74862556     1.59700
Cd1040     Cd  0.95828265  0.27355451  0.77748588     1.59600
O1041       O  0.00119003  0.30473116  0.72354616    -0.79500
O1042       O  0.00096213  0.25765950  0.77977397    -1.90000
Cd1043     Cd  0.01407081  0.26518348  0.82257436     1.59900
O1044       O  0.95218565  0.29208903  0.73219731    -0.79500
O1045       O  0.01472864  0.22436413  0.84683679    -0.78100
C1046       C  0.94230648  0.21101711  0.79379944     0.84400
C1047       C  0.02581076  0.21593215  0.71042881     0.84000
O1048       O  0.01533138  0.19018661  0.80874162    -0.77100
C1049       C  0.05930798  0.30731349  0.80354440     0.84900
O1050       O  0.95492040  0.20820248  0.76798921    -0.77200
C1051       C  0.97283865  0.30659496  0.71665269     0.85000
C1052       C  0.96735789  0.31688117  0.83163374     0.85300
O1053       O  0.95545419  0.31079189  0.80554747    -0.79600
C1054       C  0.86590343  0.40995266  0.94296721     0.87900
C1055       C  0.88846215  0.42672827  0.96510019    -0.52400
C1056       C  0.91083937  0.44334634  0.94970807     0.10800
C1057       C  0.90825080  0.44091884  0.91372647     0.21700
C1058       C  0.85367790  0.43603207  0.92266515    -0.53100
C1059       C  0.87490937  0.45087177  0.90511608     0.10900
C1060       C  0.88708106  0.39059686  0.92281031    -0.52600
C1061       C  0.90894022  0.40628750  0.90756217     0.11500
H1062       H  0.88706507  0.42605012  0.99002156     0.16000
H1063       H  0.92615851  0.45384100  0.90103154     0.01700
H1064       H  0.82911436  0.43892224  0.91919201     0.16300
H1065       H  0.88423697  0.36594031  0.91984912     0.16100
C1066       C  0.11448293  0.46057985  0.86926970     0.87900
C1067       C  0.09325958  0.43813538  0.85255398    -0.52400
C1068       C  0.07400535  0.42127847  0.87054629     0.10800
C1069       C  0.07770037  0.42918905  0.90545655     0.21700
C1070       C  0.09298375  0.48095747  0.88898877    -0.53100
C1071       C  0.07374537  0.46470835  0.90824698     0.10900
C1072       C  0.13092748  0.43973429  0.89279927    -0.52600
C1073       C  0.11216290  0.42385154  0.91188108     0.11500
H1074       H  0.09761776  0.43109382  0.82911087     0.16000
H1075       H  0.06237943  0.41594937  0.92094751     0.01700
H1076       H  0.09394799  0.50586469  0.88878070     0.16300
H1077       H  0.15572051  0.43660468  0.89370654     0.16100
C1078       C  0.95198932  0.64340084  0.89115197     0.87900
C1079       C  0.92846676  0.65802350  0.91273380    -0.52400
C1080       C  0.91109257  0.63817652  0.92958965     0.10800
C1081       C  0.91916691  0.60403229  0.92323688     0.21700
C1082       C  0.97156119  0.62194921  0.91183385    -0.53100
C1083       C  0.95463265  0.60113800  0.92865378     0.10900
C1084       C  0.93209786  0.62161303  0.87183914    -0.52600
C1085       C  0.91525222  0.60115743  0.88804388     0.11500
H1086       H  0.92240952  0.68210197  0.91172708     0.16000
H1087       H  0.90515503  0.58736910  0.93651185     0.01700
H1088       H  0.99651669  0.62239177  0.91222642     0.16300
H1089       H  0.92947347  0.62360059  0.84696246     0.16100
C1090       C  0.04234485  0.37353266  0.10411567     0.87900
C1091       C  0.02424867  0.39629471  0.08347642    -0.52400
C1092       C  0.04255432  0.41660215  0.06742589     0.10800
C1093       C  0.07771057  0.41168247  0.07372556     0.21700
C1094       C  0.06558830  0.35811978  0.08244357    -0.53100
C1095       C  0.08515572  0.37735282  0.06710975     0.10900
C1096       C  0.06278793  0.39405922  0.12428172    -0.52600
C1097       C  0.08106808  0.41382797  0.10893123     0.11500
H1098       H  0.99931158  0.39689748  0.08248025     0.16000
H1099       H  0.09246279  0.42805122  0.06096099     0.01700
H1100       H  0.07105048  0.33405093  0.08444388     0.16300
H1101       H  0.06480223  0.39138567  0.14915913     0.16100
C1102       C  0.89987032  0.55197850  0.13625955     0.87900
C1103       C  0.91844179  0.53383847  0.11226390    -0.52400
C1104       C  0.93337926  0.55202348  0.09108269     0.10800
C1105       C  0.92812847  0.58731353  0.09646287     0.21700
C1106       C  0.92299316  0.57459805  0.15051482    -0.53100
C1107       C  0.93722313  0.59422934  0.13044253     0.10900
C1108       C  0.87876036  0.57287524  0.11700589    -0.52600
C1109       C  0.89299106  0.59146562  0.09664493     0.11500
H1110       H  0.91911929  0.50892339  0.11170230     0.16000
H1111       H  0.94000404  0.60195087  0.07929633     0.01700
H1112       H  0.92306693  0.57956335  0.17476393     0.16300
H1113       H  0.85427379  0.57532154  0.12149804     0.16100
C1114       C  0.12441472  0.62496580  0.05039500     0.87900
C1115       C  0.14248171  0.60339775  0.07134639    -0.52400
C1116       C  0.12559812  0.58317885  0.08800182     0.10800
C1117       C  0.09071531  0.58541729  0.08101864     0.21700
C1118       C  0.10584193  0.60293973  0.02916576    -0.53100
C1119       C  0.08795488  0.58212462  0.04524939     0.10900
C1120       C  0.09961293  0.63942959  0.07036775    -0.52600
C1121       C  0.08273104  0.61939093  0.08700728     0.11500
H1122       H  0.16714701  0.60597399  0.07470905     0.16000
H1123       H  0.07646521  0.56906230  0.09443144     0.01700
H1124       H  0.10530443  0.60422062  0.00424081     0.16300
H1125       H  0.09707556  0.66415790  0.07303839     0.16100
O1126       O  0.03744147  0.57189118  0.02602605    -0.77100
C1127       C  0.96931690  0.57601872  0.94739268     0.83900
O1128       O  0.95162228  0.51015930  0.05874685    -0.78200
O1129       O  0.95359715  0.47709011  0.94733389    -0.79700
O1130       O  0.06456336  0.48167443  0.96021768    -0.79500
O1131       O  0.07223283  0.53419113  0.02230099    -0.78100
Zn1132     Zn  0.99604414  0.55434828  0.01074446     1.55700
O1133       O  0.02702839  0.48913349  0.92559812    -0.79500
Cd1134     Cd  0.04618424  0.49743710  0.00295013     1.59700
Cd1135     Cd  0.97364147  0.48286403  0.02386574     1.59600
O1136       O  0.04936312  0.45968047  0.03346325    -0.79500
O1137       O  0.00139932  0.51072843  0.99787326    -1.90000
Cd1138     Cd  0.99027538  0.50731648  0.95237403     1.59900
O1139       O  0.00106040  0.44799746  0.04616770    -0.79500
O1140       O  0.97363950  0.54973913  0.93495414    -0.78100
C1141       C  0.95161018  0.53915169  0.06447443     0.84400
C1142       C  0.06478322  0.56163360  0.03007641     0.84000
O1143       O  0.97711510  0.58105364  0.97543994    -0.77100
C1144       C  0.05410657  0.47959530  0.93257879     0.84900
O1145       O  0.96695621  0.55772454  0.04774375    -0.77200
C1146       C  0.03015588  0.44272311  0.04785434     0.85000
C1147       C  0.93601831  0.46159585  0.96495980     0.85300
O1148       O  0.93983494  0.46153432  0.99441227    -0.79600
O1149       O  0.51258361  0.70830525  0.23424445    -0.77100
C1150       C  0.53769594  0.70178362  0.33510858     0.83900
O1151       O  0.43678812  0.73700392  0.29860483    -0.78200
O1152       O  0.49357746  0.79942165  0.34656653    -0.79700
O1153       O  0.55844362  0.81219171  0.27731228    -0.79500
O1154       O  0.54491921  0.74520867  0.21999256    -0.78100
Zn1155     Zn  0.50944913  0.71793750  0.27861195     1.55700
O1156       O  0.56342403  0.78674543  0.32126394    -0.79500
Cd1157     Cd  0.53343740  0.77869870  0.25317482     1.59700
Cd1158     Cd  0.46351244  0.77349984  0.27925717     1.59600
O1159       O  0.50736005  0.80552830  0.22603297    -0.79500
O1160       O  0.50640643  0.76015738  0.28333141    -1.90000
Cd1161     Cd  0.52124396  0.76745289  0.32502138     1.59900
O1162       O  0.45832754  0.79340276  0.23432423    -0.79500
O1163       O  0.52593798  0.72596364  0.34673150    -0.78100
C1164       C  0.44711931  0.71032857  0.30615479     0.84400
C1165       C  0.52879851  0.72124629  0.21365960     0.84000
O1166       O  0.54150541  0.69948062  0.30604179    -0.77100
C1167       C  0.56485507  0.81160407  0.30609922     0.84900
O1168       O  0.47309743  0.70078486  0.29730631    -0.77200
C1169       C  0.47921197  0.80752600  0.21875802     0.85000
C1170       C  0.47094651  0.81500833  0.33599780     0.85300
O1171       O  0.45858851  0.80908618  0.30994808    -0.79600
O1172       O  0.49096614  0.33720573  0.69154084    -0.77100
C1173       C  0.47028725  0.31223409  0.78436801     0.83900
O1174       O  0.56846801  0.28570338  0.69795436    -0.78200
O1175       O  0.49610711  0.22456156  0.77555648    -0.79700
O1176       O  0.44469529  0.24450590  0.67602272    -0.79500
O1177       O  0.48806207  0.30420068  0.65232125    -0.78100
Zn1178     Zn  0.50625229  0.31169642  0.72646198     1.55700
O1179       O  0.44533592  0.22063425  0.72120308    -0.79500
Cd1180     Cd  0.48786148  0.26257499  0.67501953     1.59700
Cd1181     Cd  0.54199345  0.25165734  0.72145351     1.59600
O1182       O  0.51338083  0.22766228  0.65454892    -0.79500
O1183       O  0.50044567  0.26951518  0.71816742    -1.90000
Cd1184     Cd  0.47103121  0.25236246  0.74737342     1.59900
O1185       O  0.54336856  0.21414341  0.69399631    -0.79500
O1186       O  0.45618049  0.28690468  0.77869299    -0.78100
C1187       C  0.56243879  0.31329229  0.70549948     0.84400
C1188       C  0.48723770  0.33151791  0.66299579     0.84000
O1189       O  0.48964836  0.32335167  0.76585599    -0.77100
C1190       C  0.44118921  0.22021715  0.69191010     0.84900
O1191       O  0.55037196  0.31732582  0.73147779    -0.77200
C1192       C  0.53252964  0.20923619  0.66723777     0.85000
C1193       C  0.52430547  0.22022736  0.78211777     0.85300
O1194       O  0.54600657  0.23296130  0.76649791    -0.79600
O1195       O  0.76980010  0.02812623  0.80955139    -0.77100
C1196       C  0.66667379  0.02586060  0.82049157     0.83900
O1197       O  0.70369568  0.94694175  0.77701996    -0.78200
O1198       O  0.65903510  0.99889932  0.71592797    -0.79700
O1199       O  0.72265554  0.06948986  0.70788782    -0.79500
O1200       O  0.78544340  0.05640505  0.76996256    -0.78100
Zn1201     Zn  0.73011358  0.01090585  0.80022855     1.55700
O1202       O  0.67903816  0.06796512  0.73381710    -0.79500
Cd1203     Cd  0.75013862  0.04332862  0.73825900     1.59700
Cd1204     Cd  0.72661594  0.97214276  0.74125397     1.59600
O1205       O  0.77578609  0.01888901  0.70823743    -0.79500
O1206       O  0.72192809  0.01389455  0.75757883    -1.90000
Cd1207     Cd  0.67845827  0.02457009  0.75125334     1.59900
O1208       O  0.77256146  0.96972298  0.72354380    -0.79500
O1209       O  0.65597652  0.02273849  0.79316551    -0.78100
C1210       C  0.71037639  0.95346109  0.80492937     0.84400
C1211       C  0.79021832  0.04417649  0.79660002     0.84000
O1212       O  0.69546044  0.02570569  0.82599947    -0.77100
C1213       C  0.69327217  0.07164080  0.70855707     0.84900
O1214       O  0.73526375  0.96742904  0.80972129    -0.77200
C1215       C  0.78538454  0.99134596  0.70776944     0.85000
C1216       C  0.67195228  0.97992995  0.69769978     0.85300
O1217       O  0.69874595  0.96937288  0.70325077    -0.79600
C1218       C  0.39526735  0.05882070  0.64340873     0.87900
C1219       C  0.41549705  0.03927424  0.62181584    -0.52400
C1220       C  0.42923063  0.05573228  0.59844863     0.10800
C1221       C  0.42146315  0.09098974  0.59942946     0.21700
C1222       C  0.41649122  0.08436737  0.65481995    -0.53100
C1223       C  0.42986800  0.10200221  0.63262433     0.10900
C1224       C  0.37292266  0.07586317  0.62169865    -0.52600
C1225       C  0.38603612  0.09256447  0.59895284     0.11500
H1226       H  0.41793287  0.01455777  0.62419685     0.16000
H1227       H  0.43244299  0.10463695  0.58085543     0.01700
H1228       H  0.41680180  0.09196209  0.67842194     0.16300
H1229       H  0.34821118  0.07660868  0.62539666     0.16100
C1230       C  0.55745643  0.87981165  0.61699400     0.87900
C1231       C  0.53585012  0.90012132  0.59689246    -0.52400
C1232       C  0.55114094  0.91850361  0.57606145     0.10800
C1233       C  0.58707274  0.91436941  0.57742674     0.21700
C1234       C  0.57626110  0.86210620  0.59347506    -0.53100
C1235       C  0.59342280  0.87921387  0.57361919     0.10900
C1236       C  0.57932905  0.90288749  0.63159264    -0.52600
C1237       C  0.59498781  0.92061042  0.61150097     0.11500
H1238       H  0.51112714  0.90132784  0.59920550     0.16000
H1239       H  0.59980257  0.92914480  0.56098077     0.01700
H1240       H  0.57893395  0.83738862  0.59574728     0.16300
H1241       H  0.58307325  0.90439524  0.65637588     0.16100
C1242       C  0.62803027  0.11915405  0.55330947     0.87900
C1243       C  0.64444945  0.09578821  0.57404300    -0.52400
C1244       C  0.62617519  0.07899231  0.59309324     0.10800
C1245       C  0.59145702  0.08451664  0.58616628     0.21700
C1246       C  0.60661635  0.09880554  0.53322015    -0.53100
C1247       C  0.58717397  0.08039571  0.55051192     0.10900
C1248       C  0.60561397  0.13664327  0.57369411    -0.52600
C1249       C  0.58691877  0.11910365  0.59101730     0.11500
H1250       H  0.66928962  0.09631127  0.57651923     0.16000
H1251       H  0.57592479  0.07014170  0.60035846     0.01700
H1252       H  0.60629942  0.09888246  0.50824854     0.16300
H1253       H  0.60568084  0.16157642  0.57566226     0.16100
C1254       C  0.36866952  0.89771237  0.45436640     0.87900
C1255       C  0.38920925  0.91653513  0.47681828    -0.52400
C1256       C  0.41071855  0.93461581  0.46183741     0.10800
C1257       C  0.40940263  0.93164233  0.42584222     0.21700
C1258       C  0.35508323  0.92260260  0.43331321    -0.53100
C1259       C  0.37563304  0.93897622  0.41628311     0.10900
C1260       C  0.39179200  0.87988898  0.43505605    -0.52600
C1261       C  0.41261900  0.89705125  0.41985173     0.11500
H1262       H  0.38721305  0.91597808  0.50170822     0.16000
H1263       H  0.42672932  0.94585364  0.41370295     0.01700
H1264       H  0.33047816  0.92393090  0.42930836     0.16300
H1265       H  0.39037158  0.85514701  0.43174342     0.16100
C1266       C  0.61210236  0.95811539  0.38285963     0.87900
C1267       C  0.59044540  0.93850034  0.36367277    -0.52400
C1268       C  0.57049330  0.92115268  0.37967736     0.10800
C1269       C  0.57028778  0.92892374  0.41465676     0.21700
C1270       C  0.58990166  0.98016656  0.40013435    -0.53100
C1271       C  0.56793357  0.96466116  0.41738933     0.10900
C1272       C  0.62459164  0.93773103  0.40911459    -0.52600
C1273       C  0.60292355  0.92288107  0.42601437     0.11500
H1274       H  0.59439950  0.93450193  0.33921268     0.16000
H1275       H  0.55255560  0.91615461  0.42777306     0.01700
H1276       H  0.59250726  0.00489262  0.40088599     0.16300
H1277       H  0.64904139  0.93542267  0.41401088     0.16100
C1278       C  0.45041529  0.13578849  0.39498900     0.87900
C1279       C  0.42972249  0.15026084  0.41924383    -0.52400
C1280       C  0.41078787  0.13074166  0.43457243     0.10800
C1281       C  0.41761397  0.09663460  0.42675462     0.21700
C1282       C  0.47048313  0.11339062  0.41440432    -0.53100
C1283       C  0.45321644  0.09280718  0.43167612     0.10900
C1284       C  0.43052243  0.11448663  0.37568619    -0.52600
C1285       C  0.41304282  0.09460366  0.39154270     0.11500
H1286       H  0.42760419  0.17505258  0.42082372     0.16000
H1287       H  0.40341869  0.08009530  0.43996004     0.01700
H1288       H  0.49538471  0.11400953  0.41527157     0.16300
H1289       H  0.42885199  0.11634437  0.35066809     0.16100
O1290       O  0.52512109  0.93731018  0.53030063    -0.77100
C1291       C  0.43411214  0.95442918  0.47796605     0.83900
O1292       O  0.54885986  0.00795727  0.44710100    -0.78200
O1293       O  0.44844979  0.05353627  0.47008471    -0.79700
O1294       O  0.47487928  0.02984799  0.58015088    -0.79500
O1295       O  0.53026329  0.96946846  0.56997987    -0.78100
Zn1296     Zn  0.50349566  0.96321547  0.49552548     1.55700
O1297       O  0.43680493  0.03822907  0.54623468    -0.79500
Cd1298     Cd  0.51139450  0.01144687  0.55283462     1.59700
Cd1299     Cd  0.52475297  0.03464257  0.48040164     1.59600
O1300       O  0.54725834  0.04332333  0.55589646    -0.79500
O1301       O  0.49830164  0.00678609  0.50794153    -1.90000
Cd1302     Cd  0.45315840  0.01907390  0.50393535     1.59900
O1303       O  0.55726205  0.05936690  0.50803160    -0.79500
O1304       O  0.42646304  0.98131730  0.48734096    -0.78100
C1305       C  0.54831884  0.97899462  0.44193519     0.84400
C1306       C  0.53468212  0.94305911  0.55770272     0.84000
O1307       O  0.46191266  0.94478469  0.48033946    -0.77100
C1308       C  0.44803279  0.04046788  0.57358058     0.84900
O1309       O  0.53203790  0.96107910  0.45848455    -0.77200
C1310       C  0.56270695  0.05986067  0.53717999     0.85000
C1311       C  0.46677929  0.06945679  0.45353654     0.85300
O1312       O  0.49602396  0.06574242  0.45534162    -0.79600
C1313       C  0.64334181  0.07863826  0.67898481     0.25000
C1314       C  0.67522166  0.07235775  0.67911740    -0.23100
C1315       C  0.68848762  0.06143310  0.65164645     0.19900
C1316       C  0.67104413  0.05920186  0.62452830     0.24900
C1317       C  0.64010119  0.06913455  0.62348495    -0.23100
C1318       C  0.62592431  0.07647483  0.65167022     0.19800
F1319       F  0.59538128  0.08250391  0.65296582    -0.13000
F1320       F  0.62891328  0.08734869  0.70524638    -0.15400
F1321       F  0.68484704  0.04817911  0.59878472    -0.15400
F1322       F  0.71837038  0.05232111  0.65092222    -0.13000
C1323       C  0.66526254  0.94154845  0.65553108     0.25000
C1324       C  0.65533934  0.96872130  0.67000128    -0.23100
C1325       C  0.62820467  0.98312364  0.65923516     0.19900
C1326       C  0.61047216  0.96944531  0.63598818     0.24900
C1327       C  0.61903425  0.94080822  0.62393652    -0.23100
C1328       C  0.64662038  0.92712755  0.63391293     0.19800
F1329       F  0.65333262  0.89764824  0.62647874    -0.13000
F1330       F  0.69140093  0.92685960  0.66460309    -0.15400
F1331       F  0.58301458  0.98220392  0.62800484    -0.15400
F1332       F  0.61771839  0.00930338  0.67247387    -0.13000
C1333       C  0.45429717  0.16437200  0.68745254     0.25000
C1334       C  0.43874329  0.19023250  0.67545952    -0.23100
C1335       C  0.42619117  0.18817262  0.64545082     0.19900
C1336       C  0.42693309  0.16025820  0.62908632     0.24900
C1337       C  0.43974477  0.13361937  0.64254331    -0.23100
C1338       C  0.45534537  0.13680896  0.67099298     0.19800
F1339       F  0.47028081  0.11241345  0.68379020    -0.13000
F1340       F  0.46920107  0.16579922  0.71500885    -0.15400
F1341       F  0.41449459  0.15933024  0.60042876    -0.15400
F1342       F  0.41265441  0.21304503  0.63210658    -0.13000
C1343       C  0.58656901  0.14810234  0.63926928     0.25000
C1344       C  0.56949514  0.13421115  0.61560885    -0.23100
C1345       C  0.53889068  0.14324934  0.61049365     0.19900
C1346       C  0.52616554  0.16730042  0.62774405     0.24900
C1347       C  0.54387407  0.18201091  0.65060706    -0.23100
C1348       C  0.57377431  0.17124541  0.65695877     0.19800
F1349       F  0.59192953  0.18508019  0.67835039    -0.13000
F1350       F  0.61698943  0.14181733  0.64284579    -0.15400
F1351       F  0.49716894  0.17699486  0.62124317    -0.15400
F1352       F  0.52243948  0.13080446  0.58698552    -0.13000
C1353       C  0.58810688  0.86764389  0.36807362     0.25000
C1354       C  0.56517730  0.89060008  0.36535442    -0.23100
C1355       C  0.54391924  0.88838257  0.34092726     0.19900
C1356       C  0.54512486  0.86362277  0.32030298     0.24900
C1357       C  0.56754117  0.84039933  0.32381864    -0.23100
C1358       C  0.58858480  0.84242554  0.34825225     0.19800
F1359       F  0.61050516  0.82046112  0.35220803    -0.13000
F1360       F  0.61208039  0.87095726  0.38777215    -0.15400
F1361       F  0.52378807  0.86190332  0.29741221    -0.15400
F1362       F  0.52291991  0.91108199  0.33618515    -0.13000
C1363       C  0.46129422  0.87624929  0.39750173     0.25000
C1364       C  0.42980269  0.88251485  0.39460521    -0.23100
C1365       C  0.41282003  0.86877433  0.37071588     0.19900
C1366       C  0.42667331  0.84812235  0.35077296     0.24900
C1367       C  0.45777647  0.84003924  0.35475349    -0.23100
C1368       C  0.47522008  0.85487339  0.37784326     0.19800
F1369       F  0.50535329  0.84783343  0.38219733    -0.13000
F1370       F  0.47790929  0.88896377  0.42074053    -0.15400
F1371       F  0.40882585  0.83423803  0.32916191    -0.15400
F1372       F  0.38204549  0.87371927  0.36812031    -0.13000
C1373       C  0.05359919  0.36492323  0.80771469     0.25000
C1374       C  0.06147922  0.33663342  0.82153167    -0.23100
C1375       C  0.06640824  0.33624065  0.85387066     0.19900
C1376       C  0.06604211  0.36354531  0.87115510     0.24900
C1377       C  0.06172432  0.39208689  0.85656028    -0.23100
C1378       C  0.05300066  0.39200067  0.82508502     0.19800
F1379       F  0.04551692  0.41872770  0.81057678    -0.13000
F1380       F  0.04633626  0.36663045  0.77727009    -0.15400
F1381       F  0.07075195  0.36189447  0.90203624    -0.15400
F1382       F  0.07190380  0.30942672  0.86900728    -0.13000
C1383       C  0.91202236  0.37777120  0.85884074     0.25000
C1384       C  0.92743878  0.39002605  0.88444231    -0.23100
C1385       C  0.95726734  0.37984456  0.89157763     0.19900
C1386       C  0.97093139  0.35650105  0.87404657     0.24900
C1387       C  0.95501463  0.34354711  0.84882504    -0.23100
C1388       C  0.92579258  0.35534859  0.84086334     0.19800
F1389       F  0.90919227  0.34357272  0.81708823    -0.13000
F1390       F  0.88233099  0.38560630  0.85280813    -0.15400
F1391       F  0.99901515  0.34573359  0.88259088    -0.15400
F1392       F  0.97200738  0.39061484  0.91698807    -0.13000
C1393       C  0.83431306  0.47514690  0.87127048     0.25000
C1394       C  0.86396274  0.46209452  0.87401875    -0.23100
C1395       C  0.87871870  0.45291672  0.84666990     0.19900
C1396       C  0.86236925  0.45165228  0.81862339     0.24900
C1397       C  0.83112758  0.46038762  0.81709085    -0.23100
C1398       C  0.81788148  0.47360897  0.84352087     0.19800
F1399       F  0.78904625  0.48566566  0.84254297    -0.13000
F1400       F  0.82054851  0.48820325  0.89606247    -0.15400
F1401       F  0.87706629  0.44135431  0.79310464    -0.15400
F1402       F  0.90867107  0.44429445  0.84693161    -0.13000
C1403       C  0.84749998  0.58959715  0.83664406     0.25000
C1404       C  0.85550647  0.56210793  0.82164301    -0.23100
C1405       C  0.88103036  0.54514932  0.83257177     0.19900
C1406       C  0.89859015  0.55600650  0.85743816     0.24900
C1407       C  0.89123175  0.58413303  0.87133050    -0.23100
C1408       C  0.86550885  0.60072315  0.86072831     0.19800
F1409       F  0.85989653  0.62953481  0.87122396    -0.13000
F1410       F  0.82371434  0.60722057  0.82637248    -0.15400
F1411       F  0.92435242  0.54049571  0.86617038    -0.15400
F1412       F  0.88971007  0.51872938  0.81852650    -0.13000
C1413       C  0.14723767  0.31729510  0.05710131     0.25000
C1414       C  0.17228895  0.33168489  0.07174132    -0.23100
C1415       C  0.17059312  0.36373099  0.07640145     0.19900
C1416       C  0.14353553  0.38012276  0.06977018     0.24900
C1417       C  0.11677474  0.36467594  0.06009271    -0.23100
C1418       C  0.12007098  0.33369905  0.05089271     0.19800
F1419       F  0.09625790  0.31878133  0.03724682    -0.13000
F1420       F  0.14889462  0.28733024  0.04867814    -0.15400
F1421       F  0.14360763  0.41090451  0.07413398    -0.15400
F1422       F  0.19493015  0.37935488  0.08816668    -0.13000
C1423       C  0.15693763  0.35561303  0.93957867     0.25000
C1424       C  0.16831757  0.36607923  0.96823970    -0.23100
C1425       C  0.15649605  0.39384769  0.98018504     0.19900
C1426       C  0.13522779  0.41131933  0.96307090     0.24900
C1427       C  0.12573181  0.40158178  0.93373076    -0.23100
C1428       C  0.13674141  0.37362786  0.92223667     0.19800
F1429       F  0.13046432  0.36515164  0.89279128    -0.13000
F1430       F  0.16690306  0.32887572  0.92698527    -0.15400
F1431       F  0.12611723  0.43913145  0.97384883    -0.15400
F1432       F  0.16689698  0.40521134  0.00738587    -0.13000
C1433       C  0.96197058  0.13193640  0.82595068     0.25000
C1434       C  0.95011861  0.13273814  0.85597848    -0.23100
C1435       C  0.94020467  0.16144001  0.86739150     0.19900
C1436       C  0.93679938  0.18694439  0.84741183     0.24900
C1437       C  0.94414749  0.18441573  0.81585230    -0.23100
C1438       C  0.95780660  0.15661936  0.80585146     0.19800
F1439       F  0.96776714  0.15304761  0.77644489    -0.13000
F1440       F  0.97531373  0.10586850  0.81512590    -0.15400
F1441       F  0.92610704  0.21385578  0.85894738    -0.15400
F1442       F  0.93327746  0.16487578  0.89759139    -0.13000
C1443       C  0.85084716  0.03376323  0.85922474     0.25000
C1444       C  0.87735894  0.04587841  0.84539513    -0.23100
C1445       C  0.87633465  0.05046449  0.81295830     0.19900
C1446       C  0.84803078  0.05116067  0.79713226     0.24900
C1447       C  0.82047195  0.04545488  0.81292715    -0.23100
C1448       C  0.82261607  0.03508387  0.84387647     0.19800
F1449       F  0.79717290  0.02728501  0.86013316    -0.13000
F1450       F  0.85127865  0.02548177  0.88945270    -0.15400
F1451       F  0.84778273  0.05664681  0.76629091    -0.15400
F1452       F  0.90239440  0.05300785  0.79610917    -0.13000
C1453       C  0.05077412  0.12485897  0.87301818     0.25000
C1454       C  0.05118751  0.13385657  0.90408988    -0.23100
C1455       C  0.03170500  0.15789932  0.91339569     0.19900
C1456       C  0.01836033  0.17720303  0.89143994     0.24900
C1457       C  0.02365159  0.17209228  0.85991553    -0.23100
C1458       C  0.03743339  0.14420053  0.85086024     0.19800
F1459       F  0.04066394  0.13699874  0.82061005    -0.13000
F1460       F  0.06641742  0.09962131  0.86352116    -0.15400
F1461       F  0.00215105  0.20204475  0.90113204    -0.15400
F1462       F  0.02842740  0.16472236  0.94374549    -0.13000
C1463       C  0.14703351  0.18738628  0.94896322     0.25000
C1464       C  0.14134555  0.16229017  0.96945255    -0.23100
C1465       C  0.16025569  0.15973907  0.99575704     0.19900
C1466       C  0.18231979  0.18235117  0.00232915     0.24900
C1467       C  0.18635224  0.20799069  0.98263291    -0.23100
C1468       C  0.16852024  0.21008531  0.95590284     0.19800
F1469       F  0.17159683  0.23436045  0.93641460    -0.13000
F1470       F  0.13308967  0.18934263  0.92093089    -0.15400
F1471       F  0.20047736  0.17865130  0.02764496    -0.15400
F1472       F  0.15892505  0.13454430  0.01415318    -0.13000
C1473       C  0.37669885  0.05276446  0.69991440     0.25000
C1474       C  0.37624683  0.04276576  0.66877423    -0.23100
C1475       C  0.35003397  0.02649354  0.65924077     0.19900
C1476       C  0.32248110  0.02963284  0.67546511     0.24900
C1477       C  0.32106831  0.04749437  0.70274730    -0.23100
C1478       C  0.34906783  0.05656585  0.71615383     0.19800
F1479       F  0.34979704  0.06957285  0.74455231    -0.13000
F1480       F  0.40351246  0.05870158  0.71483691    -0.15400
F1481       F  0.29696902  0.01622627  0.66342695    -0.15400
F1482       F  0.34955349  0.01244497  0.63132765    -0.13000
C1483       C  0.18446189  0.07095605  0.85955459     0.25000
C1484       C  0.18102511  0.09322196  0.83611060    -0.23100
C1485       C  0.15648219  0.11411784  0.83782679     0.19900
C1486       C  0.13664569  0.11375437  0.86311374     0.24900
C1487       C  0.13983362  0.09140592  0.88655771    -0.23100
C1488       C  0.16407724  0.07011064  0.88451568     0.19800
F1489       F  0.16891089  0.04945771  0.90756784    -0.13000
F1490       F  0.20705164  0.04942209  0.85787417    -0.15400
F1491       F  0.11614913  0.13707325  0.86604451    -0.15400
F1492       F  0.15235217  0.13563555  0.81543510    -0.13000
C1493       C  0.15616964  0.94915945  0.83933522     0.25000
C1494       C  0.15159392  0.98038967  0.83221138    -0.23100
C1495       C  0.12898707  0.99698759  0.84862218     0.19900
C1496       C  0.11032224  0.98210473  0.87029079     0.24900
C1497       C  0.11368922  0.95048507  0.87560807    -0.23100
C1498       C  0.13711078  0.93435532  0.86030374     0.19800
F1499       F  0.13916697  0.90333387  0.86280719    -0.13000
F1500       F  0.17715405  0.93199241  0.82390592    -0.15400
F1501       F  0.08697463  0.99784660  0.88373066    -0.15400
F1502       F  0.12372873  0.02717292  0.84257682    -0.13000
C1503       C  0.80058791  0.35238551  0.93223838     0.25000
C1504       C  0.80043493  0.33691663  0.96032816    -0.23100
C1505       C  0.81780542  0.34894261  0.98524209     0.19900
C1506       C  0.83700012  0.37457994  0.98125065     0.24900
C1507       C  0.83939624  0.38855973  0.95212794    -0.23100
C1508       C  0.82012049  0.37726389  0.92789190     0.19800
F1509       F  0.82269883  0.38793015  0.89853690    -0.13000
F1510       F  0.78457556  0.34128836  0.90774415    -0.15400
F1511       F  0.85500411  0.38362807  0.00512443    -0.15400
F1512       F  0.81747379  0.33479423  0.01319685    -0.13000
C1513       C  0.85681338  0.14657151  0.06511666     0.25000
C1514       C  0.88711238  0.15782936  0.06339274    -0.23100
C1515       C  0.89112935  0.18922045  0.05625009     0.19900
C1516       C  0.86610766  0.20928103  0.05472221     0.24900
C1517       C  0.83587233  0.19846376  0.05806818    -0.23100
C1518       C  0.83145478  0.16674903  0.06275322     0.19800
F1519       F  0.80257359  0.15500144  0.06279479    -0.13000
F1520       F  0.85158415  0.11608482  0.06856470    -0.15400
F1521       F  0.87132830  0.23937596  0.04823520    -0.15400
F1522       F  0.91970994  0.20072923  0.05133504    -0.13000
C1523       C  0.85524855  0.14890670  0.96436598     0.25000
C1524       C  0.84021360  0.17011203  0.94487371    -0.23100
C1525       C  0.84828762  0.17214415  0.91379423     0.19900
C1526       C  0.86884971  0.15106256  0.90156469     0.24900
C1527       C  0.88298088  0.12887890  0.92069361    -0.23100
C1528       C  0.87693035  0.12854005  0.95232872     0.19800
F1529       F  0.88984959  0.10681489  0.97086664    -0.13000
F1530       F  0.84803746  0.14720817  0.99470970    -0.15400
F1531       F  0.87327372  0.15078982  0.87058477    -0.15400
F1532       F  0.83412224  0.19261986  0.89472185    -0.13000
C1533       C  0.06178555  0.82939824  0.14703012     0.25000
C1534       C  0.05151486  0.83454182  0.17745137    -0.23100
C1535       C  0.03891186  0.86375260  0.18424959     0.19900
C1536       C  0.03946011  0.88752816  0.16264535     0.24900
C1537       C  0.05436662  0.88377475  0.13426436    -0.23100
C1538       C  0.06303928  0.85385146  0.12557298     0.19800
F1539       F  0.07426605  0.84859968  0.09697029    -0.13000
F1540       F  0.07140330  0.80107762  0.13824821    -0.15400
F1541       F  0.02901019  0.91571027  0.17107224    -0.15400
F1542       F  0.02670286  0.87001273  0.21230643    -0.13000
C1543       C  0.95691507  0.62813493  0.17343324     0.25000
C1544       C  0.94561286  0.62554069  0.14294677    -0.23100
C1545       C  0.93581143  0.65278953  0.12816718     0.19900
C1546       C  0.93175724  0.68001562  0.14499716     0.24900
C1547       C  0.93883006  0.68121670  0.17676252    -0.23100
C1548       C  0.95292838  0.65524675  0.19030121     0.19800
F1549       F  0.96335036  0.65602828  0.21985313    -0.13000
F1550       F  0.97082544  0.60379671  0.18743614    -0.15400
F1551       F  0.92066179  0.70517793  0.13002388    -0.15400
F1552       F  0.92976094  0.65345464  0.09751117    -0.13000
C1553       C  0.93982463  0.89875628  0.12924268     0.25000
C1554       C  0.93363703  0.88995320  0.09867812    -0.23100
C1555       C  0.94703995  0.86276411  0.08743816     0.19900
C1556       C  0.96146914  0.84225145  0.10747536     0.24900
C1557       C  0.96329144  0.84875133  0.13918224    -0.23100
C1558       C  0.95430192  0.87815604  0.14947833     0.19800
F1559       F  0.95748900  0.88632852  0.17951124    -0.13000
F1560       F  0.92932224  0.92583930  0.14052104    -0.15400
F1561       F  0.97210559  0.81531257  0.09588882    -0.15400
F1562       F  0.94461163  0.85512657  0.05717683    -0.13000
C1563       C  0.08023295  0.64352913  0.13808008     0.25000
C1564       C  0.06430475  0.63197664  0.11234700    -0.23100
C1565       C  0.03455543  0.64279092  0.10592679     0.19900
C1566       C  0.02174599  0.66623673  0.12380600     0.24900
C1567       C  0.03787860  0.67807269  0.14937174    -0.23100
C1568       C  0.06683460  0.66555564  0.15694823     0.19800
F1569       F  0.08387308  0.67703420  0.18056685    -0.13000
F1570       F  0.11046815  0.63688624  0.14242587    -0.15400
F1571       F  0.99466353  0.67884404  0.11469801    -0.15400
F1572       F  0.01948864  0.63325768  0.08020218    -0.13000
C1573       C  0.63962429  0.12113740  0.03161873     0.25000
C1574       C  0.63177684  0.12259167  0.06285194    -0.23100
C1575       C  0.64660650  0.14413105  0.08198441     0.19900
C1576       C  0.66927173  0.16337874  0.07030744     0.24900
C1577       C  0.67857328  0.16067027  0.03948636    -0.23100
C1578       C  0.66324341  0.13964586  0.02009197     0.19800
F1579       F  0.67190819  0.13608823  0.99030214    -0.13000
F1580       F  0.62631776  0.09993948  0.01298527    -0.15400
F1581       F  0.68392832  0.18276436  0.08993147    -0.15400
F1582       F  0.64131997  0.14436090  0.11282622    -0.13000
C1583       C  0.59245059  0.04097261  0.86089035     0.25000
C1584       C  0.60293729  0.06087720  0.88405371    -0.23100
C1585       C  0.63401768  0.05993677  0.89275656     0.19900
C1586       C  0.65528523  0.04567159  0.87346442     0.24900
C1587       C  0.64516222  0.03141120  0.84608364    -0.23100
C1588       C  0.61351978  0.02623830  0.84190233     0.19800
F1589       F  0.60291485  0.00923000  0.81793262    -0.13000
F1590       F  0.56194208  0.03868493  0.85447740    -0.15400
F1591       F  0.68569968  0.04884491  0.87989221    -0.15400
F1592       F  0.64436131  0.07609812  0.91739540    -0.13000
C1593       C  0.64966707  0.19032319  0.95175313     0.25000
C1594       C  0.67274211  0.18816606  0.92914795    -0.23100
C1595       C  0.67046803  0.16507615  0.90677803     0.19900
C1596       C  0.64480474  0.14565838  0.90599190     0.24900
C1597       C  0.62167077  0.14764555  0.92870534    -0.23100
C1598       C  0.62450209  0.17022440  0.95156971     0.19800
F1599       F  0.60208207  0.17369946  0.97295550    -0.13000
F1600       F  0.65202964  0.21129843  0.97474438    -0.15400
F1601       F  0.64127265  0.12679657  0.88141123    -0.15400
F1602       F  0.69247159  0.16219069  0.88486398    -0.13000
C1603       C  0.55990480  0.18481481  0.81088325     0.25000
C1604       C  0.53096273  0.19858953  0.80800817    -0.23100
C1605       C  0.50745986  0.18950788  0.82872356     0.19900
C1606       C  0.51293782  0.16731677  0.85171202     0.24900
C1607       C  0.54204562  0.15351750  0.85460652    -0.23100
C1608       C  0.56540527  0.16285693  0.83368988     0.19800
F1609       F  0.59448526  0.15154666  0.83609142    -0.13000
F1610       F  0.58310774  0.19229814  0.79143738    -0.15400
F1611       F  0.49004250  0.16067250  0.87170224    -0.15400
F1612       F  0.47906619  0.20252339  0.82726785    -0.13000
C1613       C  0.36505626  0.17618160  0.02860485     0.25000
C1614       C  0.35121841  0.14720135  0.03296396    -0.23100
C1615       C  0.31862685  0.14673528  0.03311504     0.19900
C1616       C  0.30158285  0.17379186  0.03782710     0.24900
C1617       C  0.31638861  0.20239972  0.03988063    -0.23100
C1618       C  0.34816668  0.20333872  0.03303578     0.19800
F1619       F  0.36340953  0.23048845  0.03177060    -0.13000
F1620       F  0.39573195  0.17822559  0.02318643    -0.15400
F1621       F  0.27050560  0.17193812  0.03982165    -0.15400
F1622       F  0.30311250  0.12003831  0.02895559    -0.13000
C1623       C  0.48941167  0.86148252  0.14956275     0.25000
C1624       C  0.45908664  0.86509840  0.13902572    -0.23100
C1625       C  0.43543089  0.84944647  0.15538424     0.19900
C1626       C  0.44187126  0.83042948  0.18054571     0.24900
C1627       C  0.47202425  0.82704792  0.19124562    -0.23100
C1628       C  0.49579198  0.84295697  0.17537565     0.19800
F1629       F  0.52557243  0.84095416  0.18478199    -0.13000
F1630       F  0.51305195  0.87608129  0.13562696    -0.15400
F1631       F  0.41833323  0.81540741  0.19439060    -0.15400
F1632       F  0.40545996  0.85256541  0.14693000    -0.13000
C1633       C  0.67662276  0.95880389  0.88586249     0.25000
C1634       C  0.64599897  0.94915319  0.88184135    -0.23100
C1635       C  0.63550811  0.94441801  0.85140783     0.19900
C1636       C  0.65628145  0.94470980  0.82638177     0.24900
C1637       C  0.68788554  0.95073977  0.83113089    -0.23100
C1638       C  0.69729503  0.95898144  0.86126512     0.19800
F1639       F  0.72686322  0.96696378  0.86739362    -0.13000
F1640       F  0.68714413  0.96633880  0.91440061    -0.15400
F1641       F  0.64534361  0.93928643  0.79756033    -0.15400
F1642       F  0.60535150  0.93884101  0.84581872    -0.13000
C1643       C  0.35889274  0.00734958  0.83841427     0.25000
C1644       C  0.36947556  0.97687650  0.83848040    -0.23100
C1645       C  0.35314740  0.95517110  0.82003753     0.19900
C1646       C  0.32605835  0.96297978  0.80456172     0.24900
C1647       C  0.31419031  0.99268083  0.80667946    -0.23100
C1648       C  0.33175339  0.01519178  0.82253719     0.19800
F1649       F  0.32228003  0.04492307  0.82354745    -0.13000
F1650       F  0.37334582  0.02933916  0.85503484    -0.15400
F1651       F  0.31045650  0.94073130  0.78923969    -0.15400
F1652       F  0.36168808  0.92515275  0.81933741    -0.13000
C1653       C  0.15400807  0.65617753  0.00893507     0.25000
C1654       C  0.14631007  0.65043232  0.03975974    -0.23100
C1655       C  0.16028777  0.66906048  0.06294322     0.19900
C1656       C  0.17968952  0.69341072  0.05547188     0.24900
C1657       C  0.18616910  0.69989536  0.02471582    -0.23100
C1658       C  0.17372229  0.68053912  0.00153804     0.19800
F1659       F  0.18062748  0.68521798  0.97138197    -0.13000
F1660       F  0.14293644  0.63843548  0.98583293    -0.15400
F1661       F  0.19090437  0.71148156  0.07834475    -0.15400
F1662       F  0.15463391  0.66398809  0.09333501    -0.13000
C1663       C  0.33638244  0.84181397  0.06730360     0.25000
C1664       C  0.33779728  0.82521578  0.03962671    -0.23100
C1665       C  0.36427266  0.82902966  0.02078963     0.19900
C1666       C  0.38762811  0.84952297  0.02883252     0.24900
C1667       C  0.38598578  0.86616901  0.05618999    -0.23100
C1668       C  0.36061398  0.86136941  0.07587670     0.19800
F1669       F  0.36004237  0.87440078  0.10423751    -0.13000
F1670       F  0.31174205  0.83906967  0.08618066    -0.15400
F1671       F  0.41275012  0.85197779  0.01051198    -0.15400
F1672       F  0.36785781  0.81303828  0.99418939    -0.13000
C1673       C  0.16769603  0.86188180  0.92314605     0.25000
C1674       C  0.16481418  0.82950801  0.92503217    -0.23100
C1675       C  0.13559275  0.81747922  0.93179730     0.19900
C1676       C  0.11005058  0.83698252  0.93501066     0.24900
C1677       C  0.11249113  0.86908982  0.93011374    -0.23100
C1678       C  0.14205800  0.88127673  0.92622619     0.19800
F1679       F  0.14640593  0.91204586  0.92464839    -0.13000
F1680       F  0.19546768  0.87519300  0.91838710    -0.15400
F1681       F  0.08243212  0.82419677  0.94181626    -0.15400
F1682       F  0.13147034  0.78675723  0.93521507    -0.13000
C1683       C  0.36255735  0.87753627  0.89343382     0.25000
C1684       C  0.37594310  0.89815214  0.91464529    -0.23100
C1685       C  0.36669763  0.89735584  0.94550935     0.19900
C1686       C  0.34286524  0.87776396  0.95451980     0.24900
C1687       C  0.32891254  0.85798003  0.93293695    -0.23100
C1688       C  0.33979551  0.85716551  0.90268131     0.19800
F1689       F  0.32642890  0.83866414  0.88135114    -0.13000
F1690       F  0.36945418  0.87916712  0.86299999    -0.15400
F1691       F  0.33270193  0.87884803  0.98403550    -0.15400
F1692       F  0.37888617  0.91729066  0.96620925    -0.13000
C1693       C  0.15607795  0.88064034  0.01833931     0.25000
C1694       C  0.17148003  0.85674696  0.03440269    -0.23100
C1695       C  0.16158907  0.84929224  0.06437319     0.19900
C1696       C  0.13854850  0.86642887  0.07849383     0.24900
C1697       C  0.12428421  0.89113720  0.06300657    -0.23100
C1698       C  0.13259175  0.89755058  0.03251551     0.19800
F1699       F  0.12003142  0.92201329  0.01751973    -0.13000
F1700       F  0.16480714  0.88891255  0.98955269    -0.15400
F1701       F  0.13261513  0.86106744  0.10874323    -0.15400
F1702       F  0.17563369  0.82684884  0.08114802    -0.13000
C1703       C  0.15402750  0.93119507  0.16546535     0.25000
C1704       C  0.13718281  0.95604178  0.15179371    -0.23100
C1705       C  0.14508805  0.98603741  0.16042268     0.19900
C1706       C  0.17020475  0.99094795  0.18021855     0.24900
C1707       C  0.18790453  0.96609768  0.19185458    -0.23100
C1708       C  0.17899946  0.93624491  0.18506681     0.19800
F1709       F  0.19595856  0.91198136  0.19527195    -0.13000
F1710       F  0.14738278  0.90157256  0.15834630    -0.15400
F1711       F  0.17804738  0.02029811  0.18722019    -0.15400
F1712       F  0.12960013  0.01070575  0.14917083    -0.13000
C1713       C  0.31993844  0.05805920  0.11040398     0.25000
C1714       C  0.35140085  0.06532465  0.11253758    -0.23100
C1715       C  0.36396270  0.06952104  0.14224723     0.19900
C1716       C  0.34466273  0.07181861  0.16826550     0.24900
C1717       C  0.31244034  0.06881967  0.16522334    -0.23100
C1718       C  0.30067688  0.06065971  0.13594384     0.19800
F1719       F  0.27016124  0.05561708  0.13159237    -0.13000
F1720       F  0.30725313  0.05086435  0.08266270    -0.15400
F1721       F  0.35761254  0.07663674  0.19636484    -0.15400
F1722       F  0.39477092  0.07210515  0.14618239    -0.13000
C1723       C  0.38031158  0.94293911  0.35782437     0.25000
C1724       C  0.36462102  0.95034950  0.38521877    -0.23100
C1725       C  0.33457903  0.96241747  0.38235357     0.19900
C1726       C  0.31918261  0.96270113  0.35394950     0.24900
C1727       C  0.33372141  0.95221013  0.32697644    -0.23100
C1728       C  0.36494690  0.94340707  0.32916189     0.19800
F1729       F  0.38072632  0.93509954  0.30355574    -0.13000
F1730       F  0.41037697  0.93477101  0.35849944    -0.15400
F1731       F  0.29015282  0.97425167  0.35287661    -0.15400
F1732       F  0.31966182  0.97341942  0.40746672    -0.13000
C1733       C  0.40492577  0.97485763  0.12906776     0.25000
C1734       C  0.39300144  0.95245134  0.10917808    -0.23100
C1735       C  0.36112474  0.94990022  0.10538386     0.19900
C1736       C  0.34152080  0.96518789  0.12565815     0.24900
C1737       C  0.35392160  0.98362253  0.14930207    -0.23100
C1738       C  0.38549667  0.99029446  0.14919217     0.19800
F1739       F  0.39788311  0.00982537  0.17016012    -0.13000
F1740       F  0.43578070  0.97905266  0.13144989    -0.15400
F1741       F  0.31091840  0.95918307  0.12425898    -0.15400
F1742       F  0.34909464  0.93019075  0.08444199    -0.13000
C1743       C  0.36506284  0.09713377  0.36125116     0.25000
C1744       C  0.38861284  0.07877840  0.37410099    -0.23100
C1745       C  0.39460735  0.04983501  0.36123123     0.19900
C1746       C  0.37790738  0.03985674  0.33540208     0.24900
C1747       C  0.35477159  0.05861539  0.32235516    -0.23100
C1748       C  0.34803749  0.08698629  0.33603303     0.19800
F1749       F  0.32663641  0.10611425  0.32342685    -0.13000
F1750       F  0.36099161  0.12652099  0.37079288    -0.15400
F1751       F  0.38488508  0.01227724  0.32268145    -0.15400
F1752       F  0.41841772  0.03252345  0.37192426    -0.13000
C1753       C  0.51635604  0.85384720  0.65149607     0.25000
C1754       C  0.54699244  0.85765650  0.64242200    -0.23100
C1755       C  0.57009356  0.84062931  0.65858275     0.19900
C1756       C  0.56287910  0.82102010  0.68297147     0.24900
C1757       C  0.53240835  0.81779773  0.69243396    -0.23100
C1758       C  0.50916800  0.83436816  0.67613771     0.19800
F1759       F  0.47908576  0.83233154  0.68415787    -0.13000
F1760       F  0.49307577  0.86909863  0.63728800    -0.15400
F1761       F  0.58594985  0.80548977  0.69743806    -0.15400
F1762       F  0.60026098  0.84338397  0.65100998    -0.13000
C1763       C  0.45087990  0.89131192  0.81943613     0.25000
C1764       C  0.44147940  0.89307767  0.85055729    -0.23100
C1765       C  0.43387302  0.86539336  0.86549515     0.19900
C1766       C  0.43057640  0.83809812  0.84873543     0.24900
C1767       C  0.43661950  0.83713404  0.81675810    -0.23100
C1768       C  0.44800676  0.86395558  0.80266883     0.19800
F1769       F  0.45676307  0.86382675  0.77266585    -0.13000
F1770       F  0.46232252  0.91645061  0.80491017    -0.15400
F1771       F  0.42123995  0.81257850  0.86410423    -0.15400
F1772       F  0.42888752  0.86443352  0.89628107    -0.13000
C1773       C  0.56918526  0.85122987  0.84116114     0.25000
C1774       C  0.53980193  0.84023047  0.84917905    -0.23100
C1775       C  0.52366220  0.85507745  0.87303142     0.19900
C1776       C  0.53732832  0.87912986  0.88951641     0.24900
C1777       C  0.56762483  0.88796320  0.88313025    -0.23100
C1778       C  0.58311885  0.87422632  0.85840078     0.19800
F1779       F  0.61343369  0.87984098  0.85370429    -0.13000
F1780       F  0.58600851  0.83775668  0.81859460    -0.15400
F1781       F  0.52239876  0.89130176  0.91406184    -0.15400
F1782       F  0.49558113  0.84505237  0.88185610    -0.13000
C1783       C  0.45199126  0.40414182  0.63197901     0.25000
C1784       C  0.45081508  0.39651302  0.60065174    -0.23100
C1785       C  0.47016545  0.37326982  0.58942767     0.19900
C1786       C  0.48478319  0.35341095  0.60996715     0.24900
C1787       C  0.48049624  0.35710915  0.64182579    -0.23100
C1788       C  0.46638009  0.38414891  0.65272168     0.19800
F1789       F  0.46336825  0.38950977  0.68338948    -0.13000
F1790       F  0.43596569  0.42849925  0.64298668    -0.15400
F1791       F  0.50083562  0.32915581  0.59867399    -0.15400
F1792       F  0.47153916  0.36738525  0.55872707    -0.13000
C1793       C  0.44507257  0.65304285  0.36950935     0.25000
C1794       C  0.42314641  0.63252211  0.35816035    -0.23100
C1795       C  0.40245013  0.64317609  0.33486217     0.19900
C1796       C  0.40759163  0.67101784  0.31943300     0.24900
C1797       C  0.43192429  0.68979183  0.32851109    -0.23100
C1798       C  0.44889717  0.68171413  0.35525204     0.19800
F1799       F  0.47147012  0.70046854  0.36565281    -0.13000
F1800       F  0.46413791  0.64459856  0.39293954    -0.15400
F1801       F  0.39068137  0.67815401  0.29399129    -0.15400
F1802       F  0.37816482  0.62586477  0.32574849    -0.13000
C1803       C  0.47361580  0.69624002  0.62737526     0.25000
C1804       C  0.47822898  0.66400937  0.62612860    -0.23100
C1805       C  0.49074507  0.65003898  0.65283343     0.19900
C1806       C  0.48948904  0.66506762  0.68137538     0.24900
C1807       C  0.47813407  0.69545085  0.68357334    -0.23100
C1808       C  0.47254100  0.71150440  0.65587495     0.19800
F1809       F  0.46623335  0.74206702  0.65623263    -0.13000
F1810       F  0.47076424  0.71335423  0.60134378    -0.15400
F1811       F  0.49756443  0.64894840  0.70703008    -0.15400
F1812       F  0.49903742  0.61993530  0.65232023    -0.13000
C1813       C  0.56265553  0.35992991  0.62990871     0.25000
C1814       C  0.55558035  0.38968081  0.64059041    -0.23100
C1815       C  0.54695586  0.39265489  0.67168871     0.19900
C1816       C  0.55153082  0.36865935  0.69263187     0.24900
C1817       C  0.56174067  0.33943120  0.68276125    -0.23100
C1818       C  0.56595166  0.33510722  0.65077685     0.19800
F1819       F  0.57322793  0.30695193  0.63958969    -0.13000
F1820       F  0.56695047  0.35480341  0.59944076    -0.15400
F1821       F  0.54553500  0.37432843  0.72279134    -0.15400
F1822       F  0.53627653  0.41996456  0.68240889    -0.13000
C1823       C  0.64892711  0.44153310  0.66333957     0.25000
C1824       C  0.63463738  0.46457483  0.64452252    -0.23100
C1825       C  0.64632063  0.49452203  0.64597912     0.19900
C1826       C  0.67223824  0.50074501  0.66435631     0.24900
C1827       C  0.68693554  0.47723609  0.68179099    -0.23100
C1828       C  0.67428844  0.44794218  0.68188400     0.19800
F1829       F  0.68758255  0.42488312  0.69843344    -0.13000
F1830       F  0.63922285  0.41189547  0.66261781    -0.15400
F1831       F  0.68318958  0.52992361  0.66485020    -0.15400
F1832       F  0.63380731  0.51756117  0.62895777    -0.13000
C1833       C  0.54501325  0.67989301  0.38803503     0.25000
C1834       C  0.54660322  0.67620431  0.35580250    -0.23100
C1835       C  0.55669066  0.64780315  0.34389414     0.19900
C1836       C  0.56822390  0.62510685  0.36370449     0.24900
C1837       C  0.57092984  0.63110113  0.39537633    -0.23100
C1838       C  0.55704289  0.65749547  0.40755565     0.19800
F1839       F  0.55707328  0.66254280  0.43845556    -0.13000
F1840       F  0.53342613  0.70583698  0.40090343    -0.15400
F1841       F  0.57940716  0.59868778  0.35152127    -0.15400
F1842       F  0.55669615  0.64237866  0.31308001    -0.13000
C1843       C  0.16243029  0.47603482  0.79674553     0.25000
C1844       C  0.19122092  0.48147261  0.81017744    -0.23100
C1845       C  0.19257849  0.48847776  0.84180961     0.19900
C1846       C  0.16633755  0.48643176  0.86029013     0.24900
C1847       C  0.13812373  0.47626890  0.84781292    -0.23100
C1848       C  0.13598628  0.47460776  0.81512141     0.19800
F1849       F  0.10831011  0.47305209  0.80059763    -0.13000
F1850       F  0.15968485  0.47365651  0.76563761    -0.15400
F1851       F  0.16892962  0.49274249  0.89083928    -0.15400
F1852       F  0.21955165  0.49743388  0.85484926    -0.13000
C1853       C  0.34319779  0.43155461  0.67055415     0.25000
C1854       C  0.32075194  0.45478780  0.66846456    -0.23100
C1855       C  0.32119033  0.47438028  0.64224713     0.19900
C1856       C  0.34304476  0.47068141  0.61897923     0.24900
C1857       C  0.36433142  0.44657753  0.62024615    -0.23100
C1858       C  0.36406718  0.42689116  0.64627023     0.19800
F1859       F  0.38180561  0.40119510  0.64670816    -0.13000
F1860       F  0.34356467  0.41195542  0.69495458    -0.15400
F1861       F  0.34139572  0.48887249  0.59351786    -0.15400
F1862       F  0.29972603  0.49675318  0.63826412    -0.13000
C1863       C  0.36957813  0.58001167  0.61527191     0.25000
C1864       C  0.40100586  0.58120825  0.62251142    -0.23100
C1865       C  0.41202144  0.56584952  0.64889295     0.19900
C1866       C  0.39171013  0.55231891  0.66945751     0.24900
C1867       C  0.35981504  0.55339482  0.66380485    -0.23100
C1868       C  0.34907420  0.56613795  0.63572693     0.19800
F1869       F  0.31860287  0.56690414  0.62876483    -0.13000
F1870       F  0.35830475  0.59428221  0.58975643    -0.15400
F1871       F  0.40342451  0.53932792  0.69550878    -0.15400
F1872       F  0.44256360  0.56546083  0.65567258    -0.13000
C1873       C  0.34715529  0.43104867  0.06882607     0.25000
C1874       C  0.37604255  0.41946708  0.07811076    -0.23100
C1875       C  0.38353344  0.38888725  0.07094425     0.19900
C1876       C  0.36055828  0.36887204  0.06097160     0.24900
C1877       C  0.33012713  0.37942393  0.05703150    -0.23100
C1878       C  0.32421665  0.41113970  0.05869540     0.19800
F1879       F  0.29579762  0.42272975  0.05260661    -0.13000
F1880       F  0.34045472  0.46140818  0.07167928    -0.15400
F1881       F  0.36790828  0.33889977  0.05638385    -0.15400
F1882       F  0.41195994  0.37726788  0.07676936    -0.13000
C1883       C  0.55570209  0.64944894  0.87889727     0.25000
C1884       C  0.58283324  0.63366078  0.87178336    -0.23100
C1885       C  0.60377618  0.64798616  0.85102234     0.19900
C1886       C  0.59502587  0.67364504  0.83355360     0.24900
C1887       C  0.56619817  0.68678309  0.83795281    -0.23100
C1888       C  0.54800171  0.67634946  0.86272904     0.19800
F1889       F  0.52175082  0.69148611  0.87004377    -0.13000
F1890       F  0.53581169  0.63807016  0.90003342    -0.15400
F1891       F  0.61380007  0.68420687  0.81100345    -0.15400
F1892       F  0.63252783  0.63675388  0.84667936    -0.13000
C1893       C  0.67382157  0.57207195  0.85621232     0.25000
C1894       C  0.65142610  0.54920000  0.86361905    -0.23100
C1895       C  0.65184592  0.52212906  0.84604095     0.19900
C1896       C  0.67363495  0.51827132  0.82215211     0.24900
C1897       C  0.69537726  0.54157607  0.81489506    -0.23100
C1898       C  0.69514343  0.56823999  0.83261125     0.19800
F1899       F  0.71600667  0.59082930  0.82751996    -0.13000
F1900       F  0.67447059  0.59947147  0.87106025    -0.15400
F1901       F  0.67291637  0.49185374  0.80562117    -0.15400
F1902       F  0.63055027  0.49998004  0.85089493    -0.13000
C1903       C  0.45737829  0.65312687  0.86900677     0.25000
C1904       C  0.44141482  0.67851510  0.85689283    -0.23100
C1905       C  0.41132663  0.68445177  0.86602225     0.19900
C1906       C  0.39736717  0.66561324  0.88768782     0.24900
C1907       C  0.41422062  0.64172124  0.90233349    -0.23100
C1908       C  0.44429412  0.63541603  0.89241814     0.19800
F1909       F  0.46108261  0.61241502  0.90542751    -0.13000
F1910       F  0.48546839  0.64540592  0.85805905    -0.15400
F1911       F  0.36705270  0.67034079  0.89344930    -0.15400
F1912       F  0.39536856  0.70843391  0.85369185    -0.13000
C1913       C  0.36913926  0.58448114  0.86032915     0.25000
C1914       C  0.35648165  0.57022538  0.88657656    -0.23100
C1915       C  0.32821320  0.55477049  0.88304280     0.19900
C1916       C  0.31118343  0.55726517  0.85573099     0.24900
C1917       C  0.32243550  0.57431025  0.83055060    -0.23100
C1918       C  0.35217616  0.58683050  0.83279574     0.19800
F1919       F  0.36485193  0.60162252  0.80837967    -0.13000
F1920       F  0.39781265  0.59631398  0.86096167    -0.15400
F1921       F  0.28388064  0.54230282  0.85383838    -0.15400
F1922       F  0.31627941  0.53838371  0.90683533    -0.13000
C1923       C  0.34093295  0.65753983  0.99457444     0.25000
C1924       C  0.33220980  0.63023831  0.97971921    -0.23100
C1925       C  0.30089996  0.62862968  0.97022054     0.19900
C1926       C  0.28390120  0.65568368  0.96444171     0.24900
C1927       C  0.29671363  0.68446576  0.97131481    -0.23100
C1928       C  0.32407669  0.68460773  0.98937445     0.19800
F1929       F  0.33555889  0.71116746  0.00097235    -0.13000
F1930       F  0.36891524  0.65947262  0.00846811    -0.15400
F1931       F  0.25545807  0.65361653  0.95160320    -0.15400
F1932       F  0.28674658  0.60116816  0.96630285    -0.13000
C1933       C  0.38429734  0.34197463  0.95171406     0.25000
C1934       C  0.38223716  0.37367113  0.94500489    -0.23100
C1935       C  0.35266213  0.38702201  0.94323755     0.19900
C1936       C  0.32619166  0.36855821  0.94534482     0.24900
C1937       C  0.32879790  0.33649906  0.94900526    -0.23100
C1938       C  0.35824506  0.32355473  0.95183147     0.19800
F1939       F  0.36154029  0.29307932  0.95797167    -0.13000
F1940       F  0.41189127  0.32858317  0.95804724    -0.15400
F1941       F  0.29806478  0.38217946  0.94593363    -0.15400
F1942       F  0.34914960  0.41778295  0.93965965    -0.13000
C1943       C  0.38651301  0.47945831  0.87339513     0.25000
C1944       C  0.38165808  0.44941226  0.88390756    -0.23100
C1945       C  0.35750326  0.43213948  0.87106782     0.19900
C1946       C  0.34017289  0.44368266  0.84656169     0.24900
C1947       C  0.34708485  0.47256371  0.83378504    -0.23100
C1948       C  0.36964383  0.49085512  0.84824832     0.19800
F1949       F  0.37683825  0.51895595  0.83687923    -0.13000
F1950       F  0.41019032  0.49622961  0.88489400    -0.15400
F1951       F  0.31890490  0.42503687  0.83334927    -0.15400
F1952       F  0.35392125  0.40214632  0.87881079    -0.13000
C1953       C  0.43052054  0.35365984  0.84863822     0.25000
C1954       C  0.45503375  0.36990750  0.86340815    -0.23100
C1955       C  0.48493162  0.36547822  0.85236053     0.19900
C1956       C  0.48994038  0.34591093  0.82711645     0.24900
C1957       C  0.46525103  0.32994934  0.81289468    -0.23100
C1958       C  0.43573790  0.33362380  0.82436624     0.19800
F1959       F  0.41149620  0.31927734  0.81085895    -0.13000
F1960       F  0.40080457  0.35775856  0.85736778    -0.15400
F1961       F  0.51904946  0.34271935  0.81636523    -0.15400
F1962       F  0.50908250  0.38059612  0.86498175    -0.13000
C1963       C  0.50958078  0.67006258  0.14448477     0.25000
C1964       C  0.53097823  0.68006583  0.12225735    -0.23100
C1965       C  0.54887991  0.70649339  0.13003625     0.19900
C1966       C  0.54691484  0.72043045  0.15883379     0.24900
C1967       C  0.52807325  0.70827155  0.18179242    -0.23100
C1968       C  0.50822203  0.68380796  0.17375865     0.19800
F1969       F  0.48834523  0.67194988  0.19467039    -0.13000
F1970       F  0.49240616  0.64460210  0.13938762    -0.15400
F1971       F  0.56562069  0.74464920  0.16479384    -0.15400
F1972       F  0.57180935  0.71707388  0.11186284    -0.13000
C1973       C  0.65578271  0.34886110  0.06506655     0.25000
C1974       C  0.64377230  0.36951933  0.04238461    -0.23100
C1975       C  0.65436872  0.36667530  0.01205137     0.19900
C1976       C  0.67552725  0.34346996  0.00457269     0.24900
C1977       C  0.68683379  0.32267981  0.02731321    -0.23100
C1978       C  0.67709785  0.32618385  0.05767939     0.19800
F1979       F  0.68724280  0.30691011  0.08024110    -0.13000
F1980       F  0.64668552  0.35056884  0.09496493    -0.15400
F1981       F  0.68491583  0.34144080  0.97482743    -0.15400
F1982       F  0.64447017  0.38592891  0.98947752    -0.13000
C1983       C  0.01038405  0.66251960  0.35233613     0.25000
C1984       C  0.04125613  0.65799586  0.36060108    -0.23100
C1985       C  0.06401932  0.67489894  0.34419878     0.19900
C1986       C  0.05640843  0.69471427  0.32016075     0.24900
C1987       C  0.02579939  0.69847410  0.31110196    -0.23100
C1988       C  0.00269978  0.68255723  0.32796213     0.19800
F1989       F  0.97244685  0.68587547  0.32074758    -0.13000
F1990       F  0.98757013  0.64748109  0.36719714    -0.15400
F1991       F  0.07938997  0.70983153  0.30550275    -0.15400
F1992       F  0.09439281  0.67178084  0.35115676    -0.13000
C1993       C  0.86409452  0.46718515  0.59989523     0.25000
C1994       C  0.89484982  0.46279433  0.60881112    -0.23100
C1995       C  0.90745664  0.48189842  0.63160631     0.19900
C1996       C  0.88816978  0.49908052  0.65035472     0.24900
C1997       C  0.85613158  0.49758043  0.64610231    -0.23100
C1998       C  0.84452542  0.48430854  0.61880018     0.19800
F1999       F  0.81399311  0.48499760  0.61213357    -0.13000
F2000       F  0.85225877  0.45242694  0.57505203    -0.15400
F2001       F  0.90064911  0.51464859  0.67442117    -0.15400
F2002       F  0.93803360  0.48093471  0.63812805    -0.13000
C2003       C  0.98829713  0.33603616  0.66884504     0.25000
C2004       C  0.96506792  0.32674242  0.68978742    -0.23100
C2005       C  0.93533887  0.33833720  0.68552676     0.19900
C2006       C  0.92893653  0.35867781  0.66132666     0.24900
C2007       C  0.95208891  0.36824707  0.64027659    -0.23100
C2008       C  0.98190662  0.35638368  0.64447833     0.19800
F2009       F  0.00492620  0.36330507  0.62475261    -0.13000
F2010       F  0.01746164  0.32502260  0.67143061    -0.15400
F2011       F  0.89941917  0.36853671  0.65799347    -0.15400
F2012       F  0.91234402  0.33038602  0.70501888    -0.13000
C2013       C  0.81877861  0.57086064  0.60968963     0.25000
C2014       C  0.85089927  0.57511375  0.61164884    -0.23100
C2015       C  0.86381182  0.57705505  0.64160562     0.19900
C2016       C  0.84477337  0.57998128  0.66791796     0.24900
C2017       C  0.81235581  0.57978694  0.66508420    -0.23100
C2018       C  0.79990723  0.57433297  0.63546790     0.19800
F2019       F  0.76902546  0.57231491  0.63111430    -0.13000
F2020       F  0.80520308  0.56459195  0.58214085    -0.15400
F2021       F  0.85815426  0.58240687  0.69613805    -0.15400
F2022       F  0.89474326  0.57785802  0.64553310    -0.13000
C2023       C  0.15202916  0.59007427  0.66270336     0.25000
C2024       C  0.13574116  0.56441811  0.65034917    -0.23100
C2025       C  0.14454576  0.53487143  0.66012211     0.19900
C2026       C  0.16967591  0.53119619  0.68022573     0.24900
C2027       C  0.18587054  0.55687782  0.69160017    -0.23100
C2028       C  0.17629843  0.58626166  0.68341741     0.19800
F2029       F  0.19171677  0.61126892  0.69387063    -0.13000
F2030       F  0.14468259  0.61929028  0.65423444    -0.15400
F2031       F  0.17868844  0.50234790  0.68825579    -0.15400
F2032       F  0.12969440  0.50951031  0.65000918    -0.13000
C2033       C  0.96162805  0.71746150  0.84649071     0.25000
C2034       C  0.96449044  0.70473457  0.81693004    -0.23100
C2035       C  0.97566933  0.67412103  0.81484659     0.19900
C2036       C  0.97905381  0.65582853  0.84118478     0.24900
C2037       C  0.96851779  0.66648356  0.86981961    -0.23100
C2038       C  0.96459978  0.69869556  0.87279107     0.19800
F2039       F  0.96360226  0.71209853  0.90097939    -0.13000
F2040       F  0.95609287  0.74793835  0.85001216    -0.15400
F2041       F  0.98785236  0.62604036  0.83786207    -0.15400
F2042       F  0.98183390  0.66093286  0.78720128    -0.13000
C2043       C  0.05711560  0.85976569  0.83479575     0.25000
C2044       C  0.03481422  0.87591302  0.85258444    -0.23100
C2045       C  0.00376245  0.87231179  0.84487446     0.19900
C2046       C  0.99529320  0.85261282  0.82077727     0.24900
C2047       C  0.01776304  0.83586811  0.80380684    -0.23100
C2048       C  0.04870567  0.83997366  0.81119126     0.19800
F2049       F  0.07111626  0.82458228  0.79589452    -0.13000
F2050       F  0.08768352  0.86259029  0.84085093    -0.15400
F2051       F  0.96481287  0.85001492  0.81435014    -0.15400
F2052       F  0.98144750  0.88748932  0.86037843    -0.13000
C2053       C  0.02685673  0.65717093  0.67926580     0.25000
C2054       C  0.04383273  0.68505742  0.67843250    -0.23100
C2055       C  0.06751953  0.68773704  0.65674796     0.19900
C2056       C  0.07374632  0.66328121  0.63647586     0.24900
C2057       C  0.05504214  0.63668555  0.63611617    -0.23100
C2058       C  0.03149848  0.63421685  0.65761165     0.19800
F2059       F  0.01469259  0.60801575  0.65948067    -0.13000
F2060       F  0.00530101  0.65182591  0.70122361    -0.15400
F2061       F  0.09952237  0.66450709  0.61904428    -0.15400
F2062       F  0.08489461  0.71354157  0.65550047    -0.13000
C2063       C  0.91076218  0.66732222  0.65294154     0.25000
C2064       C  0.93916331  0.68177653  0.64990556    -0.23100
C2065       C  0.96101861  0.67028477  0.62903741     0.19900
C2066       C  0.95377427  0.64519337  0.61040912     0.24900
C2067       C  0.92411014  0.63272358  0.61130178    -0.23100
C2068       C  0.90270777  0.64415985  0.63273881     0.19800
F2069       F  0.87242407  0.63740594  0.63021342    -0.13000
F2070       F  0.88917032  0.67845409  0.67252252    -0.15400
F2071       F  0.97407876  0.63589407  0.58861340    -0.15400
F2072       F  0.98862780  0.68431680  0.62553654    -0.13000
C2073       C  0.65278568  0.15418950  0.51160144     0.25000
C2074       C  0.65130696  0.14311520  0.54196040    -0.23100
C2075       C  0.66953393  0.15816095  0.56478525     0.19900
C2076       C  0.68814887  0.18308631  0.55769476     0.24900
C2077       C  0.68891478  0.19483276  0.52772830    -0.23100
C2078       C  0.67115176  0.17982675  0.50458362     0.19800
F2079       F  0.67057872  0.19042552  0.47510473    -0.13000
F2080       F  0.63536604  0.14162734  0.48894905    -0.15400
F2081       F  0.70454679  0.19636055  0.58077931    -0.15400
F2082       F  0.66797842  0.14989032  0.59498678    -0.13000
C2083       C  0.67385153  0.36561360  0.42681851     0.25000
C2084       C  0.67365121  0.33341358  0.43175958    -0.23100
C2085       C  0.64499119  0.31927434  0.43673536     0.19900
C2086       C  0.61760473  0.33632290  0.43527469     0.24900
C2087       C  0.61765703  0.36800346  0.42784418    -0.23100
C2088       C  0.64631355  0.38263956  0.42527768     0.19800
F2089       F  0.64795444  0.41337913  0.42057498    -0.13000
F2090       F  0.70077722  0.38097817  0.42369962    -0.15400
F2091       F  0.59067279  0.32150072  0.44052197    -0.15400
F2092       F  0.64324989  0.28889989  0.44369182    -0.13000
C2093       C  0.85485336  0.32272064  0.54274249     0.25000
C2094       C  0.82700966  0.32637529  0.55925654    -0.23100
C2095       C  0.82301028  0.35371448  0.57606163     0.19900
C2096       C  0.84683270  0.37559963  0.57784288     0.24900
C2097       C  0.87441255  0.37184325  0.56110868    -0.23100
C2098       C  0.87755586  0.34544517  0.54297800     0.19800
F2099       F  0.90431133  0.34016650  0.52782241    -0.13000
F2100       F  0.86068391  0.29680940  0.52640403    -0.15400
F2101       F  0.84422315  0.39858952  0.59865252    -0.15400
F2102       F  0.79687084  0.35846706  0.59235805    -0.13000
C2103       C  0.64743638  0.37054005  0.52389975     0.25000
C2104       C  0.66438874  0.35034405  0.54294792    -0.23100
C2105       C  0.65545797  0.34631790  0.57374261     0.19900
C2106       C  0.63249061  0.36469711  0.58613031     0.24900
C2107       C  0.61731575  0.38686522  0.56780211    -0.23100
C2108       C  0.62378974  0.38855130  0.53624387     0.19800
F2109       F  0.60965492  0.40995643  0.51824055    -0.13000
F2110       F  0.65484518  0.37402978  0.49380572    -0.15400
F2111       F  0.62801861  0.36371742  0.61707603    -0.15400
F2112       F  0.67120160  0.32707551  0.59288759    -0.13000
C2113       C  0.83391261  0.39960756  0.48300073     0.25000
C2114       C  0.83823702  0.36809910  0.47740467    -0.23100
C2115       C  0.86656895  0.35811720  0.46514116     0.19900
C2116       C  0.88753534  0.37947144  0.45390455     0.24900
C2117       C  0.87951701  0.41063357  0.45314164    -0.23100
C2118       C  0.85457829  0.42080376  0.47095033     0.19800
F2119       F  0.84840991  0.45127548  0.47363830    -0.13000
F2120       F  0.80871165  0.41007164  0.49810448    -0.15400
F2121       F  0.91387527  0.36926099  0.44078488    -0.15400
F2122       F  0.87311043  0.32780469  0.46168601    -0.13000
C2123       C  0.14226825  0.93014658  0.65020771     0.25000
C2124       C  0.13324157  0.94905666  0.62520662    -0.23100
C2125       C  0.14520443  0.97858881  0.62297626     0.19900
C2126       C  0.16673674  0.98885471  0.64449714     0.24900
C2127       C  0.17607640  0.97009546  0.66984537    -0.23100
C2128       C  0.16312800  0.94069555  0.67255658     0.19800
F2129       F  0.17148039  0.92169322  0.69603392    -0.13000
F2130       F  0.13252402  0.90058347  0.65169553    -0.15400
F2131       F  0.17863871  0.01729585  0.63988784    -0.15400
F2132       F  0.13790744  0.99668490  0.59841472    -0.13000
C2133       C  0.03253118  0.86682733  0.59306908     0.25000
C2134       C  0.05213394  0.88872662  0.60641128    -0.23100
C2135       C  0.05247684  0.89232033  0.63852435     0.19900
C2136       C  0.03712897  0.87115031  0.65720964     0.24900
C2137       C  0.02084209  0.84664448  0.64380771    -0.23100
C2138       C  0.01695464  0.84588657  0.61162875     0.19800
F2139       F  0.00070258  0.82304928  0.59794299    -0.13000
F2140       F  0.03102158  0.86377688  0.56193842    -0.15400
F2141       F  0.03941835  0.87370578  0.68833325    -0.15400
F2142       F  0.07005578  0.91431688  0.65186433    -0.13000
C2143       C  0.12701428  0.11405338  0.63568660     0.25000
C2144       C  0.10535294  0.09277252  0.62448080    -0.23100
C2145       C  0.10412345  0.06333952  0.63745989     0.19900
C2146       C  0.12359719  0.05569310  0.66204858     0.24900
C2147       C  0.14568418  0.07687310  0.67265324    -0.23100
C2148       C  0.14791864  0.10569257  0.65855100     0.19800
F2149       F  0.16833406  0.12684315  0.66897410    -0.13000
F2150       F  0.12561500  0.14400955  0.62708185    -0.15400
F2151       F  0.12031928  0.02794716  0.67600625    -0.15400
F2152       F  0.08216532  0.04316350  0.62830537    -0.13000
C2153       C  0.00875841  0.15152924  0.65334756     0.25000
C2154       C  0.01891273  0.16418299  0.62538498    -0.23100
C2155       C  0.02203095  0.19660712  0.62445624     0.19900
C2156       C  0.02551149  0.21347987  0.65187148     0.24900
C2157       C  0.02332428  0.19869142  0.68065930    -0.23100
C2158       C  0.01262068  0.16785668  0.68079454     0.19800
F2159       F  0.00698735  0.15264454  0.70755581    -0.13000
F2160       F  0.00085971  0.12138964  0.65487011    -0.15400
F2161       F  0.03039235  0.24421347  0.65013618    -0.15400
F2162       F  0.02183525  0.21199741  0.59717238    -0.13000
C2163       C  0.17874088  0.06643599  0.31009670     0.25000
C2164       C  0.19069734  0.03678832  0.30708114    -0.23100
C2165       C  0.17514453  0.01230822  0.32228171     0.19900
C2166       C  0.14916137  0.01770648  0.34080126     0.24900
C2167       C  0.13792388  0.04765910  0.34469565    -0.23100
C2168       C  0.15296942  0.07177828  0.32832751     0.19800
F2169       F  0.14331838  0.10137595  0.33091795    -0.13000
F2170       F  0.19231617  0.09071550  0.29597685    -0.15400
F2171       F  0.13570319  0.99360258  0.35516899    -0.15400
F2172       F  0.18521398  0.98287594  0.31976139    -0.13000
C2173       C  0.92623248  0.86704438  0.62964466     0.25000
C2174       C  0.93631362  0.89478353  0.64262824    -0.23100
C2175       C  0.94656437  0.89401669  0.67362282     0.19900
C2176       C  0.94104021  0.86834977  0.69247700     0.24900
C2177       C  0.92575145  0.84240728  0.68063717    -0.23100
C2178       C  0.91985734  0.84159605  0.64854516     0.19800
F2179       F  0.90692205  0.81646778  0.63539491    -0.13000
F2180       F  0.92062908  0.86490747  0.59897695    -0.15400
F2181       F  0.95043737  0.86915995  0.72236453    -0.15400
F2182       F  0.95985924  0.91922330  0.68629348    -0.13000
C2183       C  0.86831566  0.98194506  0.68373287     0.25000
C2184       C  0.86631440  0.98435079  0.65112966    -0.23100
C2185       C  0.83799613  0.99479077  0.63881284     0.19900
C2186       C  0.81140980  0.99488003  0.65696317     0.24900
C2187       C  0.81269811  0.98630935  0.68828237    -0.23100
C2188       C  0.84165413  0.98173296  0.70187069     0.19800
F2189       F  0.84425072  0.97843669  0.73291791    -0.13000
F2190       F  0.89598900  0.98075622  0.69831524    -0.15400
F2191       F  0.78413893  0.00291411  0.64377668    -0.15400
F2192       F  0.83543659  0.00176285  0.60834811    -0.13000
C2193       C  0.85765465  0.16228038  0.48278388     0.25000
C2194       C  0.84666507  0.13648863  0.46686822    -0.23100
C2195       C  0.81492670  0.13659457  0.45898213     0.19900
C2196       C  0.79823434  0.16426276  0.45771774     0.24900
C2197       C  0.81197540  0.19187005  0.46706593    -0.23100
C2198       C  0.84126385  0.18991821  0.48174774     0.19800
F2199       F  0.85500209  0.21494603  0.49431147    -0.13000
F2200       F  0.88653727  0.16217305  0.49489924    -0.15400
F2201       F  0.76856724  0.16380711  0.44786080    -0.15400
F2202       F  0.79958717  0.11006918  0.45351616    -0.13000
C2203       C  0.97670435  0.86452078  0.34731802     0.25000
C2204       C  0.96236066  0.85165052  0.37327032    -0.23100
C2205       C  0.95451828  0.82006752  0.37169523     0.19900
C2206       C  0.95314001  0.80494931  0.34318281     0.24900
C2207       C  0.96174353  0.82024306  0.31600354    -0.23100
C2208       C  0.97527763  0.84970446  0.31887371     0.19800
F2209       F  0.98632087  0.86505609  0.29398461    -0.13000
F2210       F  0.98806708  0.89353840  0.34846529    -0.15400
F2211       F  0.94403559  0.77515953  0.34240247    -0.15400
F2212       F  0.94932649  0.80323195  0.39750037    -0.13000
C2213       C  0.69989613  0.66959441  0.44644151     0.25000
C2214       C  0.69203256  0.68899568  0.47060947    -0.23100
C2215       C  0.67038092  0.67846217  0.49258417     0.19900
C2216       C  0.65521306  0.65027276  0.48886353     0.24900
C2217       C  0.66118176  0.63164574  0.46317022    -0.23100
C2218       C  0.68427511  0.64210911  0.44209386     0.19800
F2219       F  0.68956362  0.62823852  0.41465524    -0.13000
F2220       F  0.72091892  0.67834077  0.42509518    -0.15400
F2221       F  0.63252082  0.64282254  0.50885250    -0.15400
F2222       F  0.66284570  0.69592197  0.51732344    -0.13000
C2223       C  0.84849335  0.70472186  0.52280585     0.25000
C2224       C  0.81659255  0.70148931  0.52654559    -0.23100
C2225       C  0.80385893  0.67210632  0.52292215     0.19900
C2226       C  0.82290263  0.64615962  0.52071292     0.24900
C2227       C  0.85516683  0.64887043  0.52385419    -0.23100
C2228       C  0.86746854  0.67874477  0.52030209     0.19800
F2229       F  0.89819358  0.68279703  0.51652757    -0.13000
F2230       F  0.86121505  0.73311791  0.52099675    -0.15400
F2231       F  0.80973467  0.61819880  0.51669630    -0.15400
F2232       F  0.77290014  0.66864489  0.52074963    -0.13000
C2233       C  0.64473233  0.81266870  0.55500046     0.25000
C2234       C  0.67415305  0.82382892  0.56319707    -0.23100
C2235       C  0.67737555  0.85595930  0.56666249     0.19900
C2236       C  0.65140656  0.87563499  0.56497783     0.24900
C2237       C  0.62164827  0.86355284  0.56077463    -0.23100
C2238       C  0.61941546  0.83234777  0.55255688     0.19800
F2239       F  0.59182399  0.82025583  0.54426894    -0.13000
F2240       F  0.64005691  0.78237728  0.54928854    -0.15400
F2241       F  0.65540562  0.90635135  0.56798187    -0.15400
F2242       F  0.70553855  0.86842658  0.57152852    -0.13000
C2243       C  0.82553141  0.85503868  0.41495134     0.25000
C2244       C  0.82030243  0.83392367  0.43861137    -0.23100
C2245       C  0.84196581  0.83120110  0.46271859     0.19900
C2246       C  0.86839677  0.84955092  0.46319115     0.24900
C2247       C  0.87434310  0.87021112  0.43899619    -0.23100
C2248       C  0.85291356  0.87180221  0.41429799     0.19800
F2249       F  0.85987924  0.88643516  0.38770964    -0.13000
F2250       F  0.80518441  0.85771553  0.39123934    -0.15400
F2251       F  0.88933418  0.84560815  0.48621352    -0.15400
F2252       F  0.83752902  0.81063637  0.48586234    -0.13000
C2253       C  0.83511127  0.86185644  0.57597771     0.25000
C2254       C  0.82564213  0.86628326  0.54525063    -0.23100
C2255       C  0.83942620  0.88979136  0.52768699     0.19900
C2256       C  0.86245892  0.90829549  0.54080313     0.24900
C2257       C  0.87106890  0.90415364  0.57180611    -0.23100
C2258       C  0.85683429  0.88104447  0.58923444     0.19800
F2259       F  0.86191003  0.87885070  0.62008003    -0.13000
F2260       F  0.82141457  0.84053520  0.59421070    -0.15400
F2261       F  0.87457679  0.93170472  0.52409580    -0.15400
F2262       F  0.83005200  0.89543379  0.49830989    -0.13000
C2263       C  0.62485690  0.85138619  0.46713220     0.25000
C2264       C  0.65197315  0.86222281  0.48129012    -0.23100
C2265       C  0.65512495  0.89389894  0.48654465     0.19900
C2266       C  0.63491188  0.91447522  0.47253389     0.24900
C2267       C  0.61181082  0.90359129  0.45272921    -0.23100
C2268       C  0.60436229  0.87224967  0.45340916     0.19800
F2269       F  0.57958724  0.86148674  0.43770812    -0.13000
F2270       F  0.61983963  0.82083099  0.46358152    -0.15400
F2271       F  0.64014541  0.94509110  0.47519471    -0.15400
F2272       F  0.67925214  0.90510536  0.50296885    -0.13000
C2273       C  0.67925588  0.94682738  0.32723742     0.25000
C2274       C  0.68736100  0.97655328  0.31877531    -0.23100
C2275       C  0.67117984  0.00159835  0.33185222     0.19900
C2276       C  0.64699129  0.99676989  0.35289081     0.24900
C2277       C  0.63904625  0.96674696  0.36170975    -0.23100
C2278       C  0.65600708  0.94195848  0.34855793     0.19800
F2279       F  0.64969929  0.91233680  0.35609796    -0.13000
F2280       F  0.69482602  0.92227111  0.31590406    -0.15400
F2281       F  0.63156170  0.02134176  0.36417965    -0.15400
F2282       F  0.67861086  0.03082584  0.32392381    -0.13000
C2283       C  0.63486457  0.03934901  0.17330151     0.25000
C2284       C  0.64036069  0.04101539  0.14115485    -0.23100
C2285       C  0.67055516  0.03417207  0.13124431     0.19900
C2286       C  0.69504263  0.03331490  0.15234277     0.24900
C2287       C  0.68984736  0.03756871  0.18399306    -0.23100
C2288       C  0.65940166  0.03834423  0.19442691     0.19800
F2289       F  0.65342513  0.03761340  0.22511105    -0.13000
F2290       F  0.60570307  0.03911561  0.18435374    -0.15400
F2291       F  0.72391450  0.02769983  0.14189888    -0.15400
F2292       F  0.67656386  0.02924494  0.10094379    -0.13000
C2293       C  0.87419414  0.06371750  0.34940485     0.25000
C2294       C  0.86742984  0.08738849  0.36995996    -0.23100
C2295       C  0.84745018  0.11137297  0.35957409     0.19900
C2296       C  0.82939488  0.10772734  0.33295685     0.24900
C2297       C  0.83331089  0.08179215  0.31455519    -0.23100
C2298       C  0.85808486  0.06175515  0.32135974     0.19800
F2299       F  0.86462943  0.03838606  0.30201763    -0.13000
F2300       F  0.89457351  0.04134843  0.35737624    -0.15400
F2301       F  0.80649538  0.12808969  0.32669408    -0.15400
F2302       F  0.84342855  0.13721667  0.37658336    -0.13000
C2303       C  0.83348597  0.97010625  0.12357274     0.25000
C2304       C  0.85566610  0.94708809  0.11835045    -0.23100
C2305       C  0.85718495  0.92233516  0.13956213     0.19900
C2306       C  0.83886627  0.92185094  0.16609027     0.24900
C2307       C  0.81664167  0.94465845  0.17101035    -0.23100
C2308       C  0.81406244  0.96879683  0.14939864     0.19800
F2309       F  0.79324073  0.99166155  0.15372891    -0.13000
F2310       F  0.82979192  0.99328225  0.10284912    -0.15400
F2311       F  0.84196545  0.89826748  0.18644345    -0.15400
F2312       F  0.87417256  0.89703038  0.13345523    -0.13000
C2313       C  0.86613732  0.95058249  0.38865756     0.25000
C2314       C  0.89675414  0.94478419  0.38033850    -0.23100
C2315       C  0.90808664  0.95740509  0.35287338     0.19900
C2316       C  0.88795954  0.96964412  0.33113718     0.24900
C2317       C  0.85610445  0.97017329  0.33692971    -0.23100
C2318       C  0.84569454  0.96275299  0.36681634     0.19800
F2319       F  0.81557012  0.96550665  0.37444818    -0.13000
F2320       F  0.85514330  0.94144752  0.41643467    -0.15400
F2321       F  0.89972212  0.97924335  0.30382353    -0.15400
F2322       F  0.93844412  0.95525283  0.34589220    -0.13000
C2323       C  0.87346115  0.03252049  0.15348544     0.25000
C2324       C  0.84888401  0.04887457  0.16680851    -0.23100
C2325       C  0.84174542  0.07845312  0.15557733     0.19900
C2326       C  0.86027103  0.09234325  0.13367745     0.24900
C2327       C  0.88566113  0.07669967  0.12140637    -0.23100
C2328       C  0.89149970  0.04628606  0.13061060     0.19800
F2329       F  0.91681299  0.03134468  0.12013274    -0.13000
F2330       F  0.88112098  0.00399685  0.16372212    -0.15400
F2331       F  0.85626107  0.12282974  0.12828112    -0.15400
F2332       F  0.81891628  0.09558710  0.16822516    -0.13000
C2333       C  0.03246500  0.30274028  0.15331394     0.25000
C2334       C  0.02765394  0.31756514  0.18165786    -0.23100
C2335       C  0.01480668  0.34754981  0.18075131     0.19900
C2336       C  0.01219301  0.36372969  0.15289663     0.24900
C2337       C  0.02467504  0.35140935  0.12569029    -0.23100
C2338       C  0.02977774  0.31921439  0.12547075     0.19800
F2339       F  0.03214168  0.30354420  0.09859151    -0.13000
F2340       F  0.03982109  0.27243238  0.15241875    -0.15400
F2341       F  0.00285234  0.39352472  0.15362222    -0.15400
F2342       F  0.00634005  0.36225834  0.20695470    -0.13000
C2343       C  0.98984853  0.15927857  0.15675503     0.25000
C2344       C  0.95932215  0.15526227  0.14749737    -0.23100
C2345       C  0.93589217  0.17101750  0.16422318     0.19900
C2346       C  0.94287010  0.19056564  0.18865211     0.24900
C2347       C  0.97337739  0.19474745  0.19772226    -0.23100
C2348       C  0.99681422  0.17852349  0.18153270     0.19800
F2349       F  0.02697223  0.18110010  0.18938784    -0.13000
F2350       F  0.01323524  0.14479015  0.14223491    -0.15400
F2351       F  0.91962398  0.20536157  0.20327623    -0.15400
F2352       F  0.90572444  0.16772836  0.15656665    -0.13000
C2353       C  0.05527456  0.15091155  0.30328142     0.25000
C2354       C  0.06386542  0.17805584  0.31864896    -0.23100
C2355       C  0.06423640  0.17755717  0.35126056     0.19900
C2356       C  0.06007461  0.15007643  0.36763074     0.24900
C2357       C  0.05685757  0.12205337  0.35189445    -0.23100
C2358       C  0.05105279  0.12350020  0.31978586     0.19800
F2359       F  0.04294001  0.09783355  0.30401792    -0.13000
F2360       F  0.05134724  0.15056573  0.27220495    -0.15400
F2361       F  0.06135145  0.15104145  0.39882782    -0.15400
F2362       F  0.06949613  0.20354033  0.36766297    -0.13000
C2363       C  0.95636960  0.39698595  0.34442832     0.25000
C2364       C  0.93411830  0.39212918  0.36703376    -0.23100
C2365       C  0.91822070  0.36387417  0.36740104     0.19900
C2366       C  0.92627847  0.34009669  0.34705307     0.24900
C2367       C  0.94872882  0.34506090  0.32441347    -0.23100
C2368       C  0.96297213  0.37426292  0.32294392     0.19800
F2369       F  0.98338112  0.38112664  0.30033400    -0.13000
F2370       F  0.96994680  0.42491178  0.34155274    -0.15400
F2371       F  0.91217214  0.31244281  0.34953305    -0.15400
F2372       F  0.89335756  0.36009497  0.38574638    -0.13000
C2373       C  0.93678439  0.13933785  0.36428641     0.25000
C2374       C  0.93640135  0.14263095  0.39649187    -0.23100
C2375       C  0.95232912  0.16727771  0.41001599     0.19900
C2376       C  0.96664155  0.18929823  0.39160075     0.24900
C2377       C  0.96472188  0.18737399  0.35932377    -0.23100
C2378       C  0.95033945  0.16182619  0.34581330     0.19800
F2379       F  0.94904477  0.15880059  0.31467359    -0.13000
F2380       F  0.92256109  0.11542319  0.35043163    -0.15400
F2381       F  0.98070000  0.21351165  0.40533446    -0.15400
F2382       F  0.95290733  0.17069659  0.44113047    -0.13000
C2383       C  0.10912571  0.37139579  0.37205773     0.25000
C2384       C  0.08972814  0.38582896  0.39361539    -0.23100
C2385       C  0.05822979  0.37942452  0.39358637     0.19900
C2386       C  0.04655671  0.35721266  0.37354974     0.24900
C2387       C  0.06627480  0.34190682  0.35301469    -0.23100
C2388       C  0.09735881  0.34982837  0.35163133     0.19800
F2389       F  0.11668713  0.33511424  0.33205029    -0.13000
F2390       F  0.13983597  0.37705911  0.37195654    -0.15400
F2391       F  0.01618506  0.35014087  0.37456607    -0.15400
F2392       F  0.03932806  0.39300394  0.41433588    -0.13000
C2393       C  0.85186811  0.54488138  0.20723628     0.25000
C2394       C  0.82366504  0.53892740  0.19243699    -0.23100
C2395       C  0.82466373  0.52419321  0.16333394     0.19900
C2396       C  0.85242972  0.52097022  0.14748359     0.24900
C2397       C  0.87940259  0.53439852  0.15929736    -0.23100
C2398       C  0.87963405  0.54114878  0.19125678     0.19800
F2399       F  0.90637094  0.54394602  0.20723336    -0.13000
F2400       F  0.85273651  0.55436619  0.23701449    -0.15400
F2401       F  0.85172762  0.51031406  0.11808930    -0.15400
F2402       F  0.79863418  0.51436286  0.14908840    -0.13000
C2403       C  0.85608288  0.49845459  0.34259159     0.25000
C2404       C  0.85643536  0.47028530  0.35831314    -0.23100
C2405       C  0.83430424  0.44773414  0.34941267     0.19900
C2406       C  0.81196494  0.45373031  0.32688102     0.24900
C2407       C  0.81096742  0.48226436  0.31223620    -0.23100
C2408       C  0.83384247  0.50426892  0.31978965     0.19800
F2409       F  0.83496922  0.53166823  0.30476467    -0.13000
F2410       F  0.87779712  0.52003667  0.34804334    -0.15400
F2411       F  0.79096184  0.43176091  0.31995041    -0.15400
F2412       F  0.83490220  0.41907962  0.36193456    -0.13000
C2413       C  0.66088144  0.43390863  0.17092858     0.25000
C2414       C  0.67627293  0.46194660  0.16692176    -0.23100
C2415       C  0.66814029  0.48053993  0.14106461     0.19900
C2416       C  0.64515877  0.47167819  0.12055980     0.24900
C2417       C  0.63078306  0.44336489  0.12389449    -0.23100
C2418       C  0.63895683  0.42433366  0.14912044     0.19800
F2419       F  0.62742636  0.39548426  0.15134016    -0.13000
F2420       F  0.66764931  0.41534741  0.19525543    -0.15400
F2421       F  0.63897560  0.48958862  0.09555958    -0.15400
F2422       F  0.68271520  0.50740574  0.13486093    -0.13000
C2423       C  0.66797007  0.60322397  0.33636183     0.25000
C2424       C  0.68819491  0.57946985  0.32937557    -0.23100
C2425       C  0.68720019  0.55213662  0.34677269     0.19900
C2426       C  0.66583374  0.54870517  0.37073523     0.24900
C2427       C  0.64544327  0.57271681  0.37818932    -0.23100
C2428       C  0.64776611  0.60048072  0.36100496     0.19800
F2429       F  0.63328916  0.62650981  0.36953475    -0.13000
F2430       F  0.66894408  0.62997879  0.32019257    -0.15400
F2431       F  0.66616070  0.52254629  0.38786924    -0.15400
F2432       F  0.70664700  0.52860341  0.34027380    -0.13000
C2433       C  0.62849458  0.56013215  0.15269172     0.25000
C2434       C  0.65092021  0.57868171  0.16691928    -0.23100
C2435       C  0.65411389  0.60931034  0.15754099     0.19900
C2436       C  0.63402804  0.62173981  0.13564561     0.24900
C2437       C  0.61154218  0.60330530  0.12136876    -0.23100
C2438       C  0.60934980  0.57222789  0.12953118     0.19800
F2439       F  0.58713576  0.55432945  0.11687865    -0.13000
F2440       F  0.62465081  0.53054378  0.16175559    -0.15400
F2441       F  0.63498971  0.65242040  0.13004914    -0.15400
F2442       F  0.67509499  0.62784905  0.17133265    -0.13000
C2443       C  0.62436975  0.49023426  0.33808127     0.25000
C2444       C  0.64847584  0.47398547  0.32358393    -0.23100
C2445       C  0.65411755  0.44334032  0.33270075     0.19900
C2446       C  0.63525783  0.42896324  0.35422768     0.24900
C2447       C  0.61086524  0.44494787  0.36811513    -0.23100
C2448       C  0.60603077  0.47589126  0.36042233     0.19800
F2449       F  0.58187147  0.49141383  0.37260718    -0.13000
F2450       F  0.61763116  0.51960450  0.32985514    -0.15400
F2451       F  0.63883914  0.39832074  0.35906909    -0.15400
F2452       F  0.67642325  0.42624629  0.31913265    -0.13000
C2453       C  0.32777379  0.32152702  0.56327133     0.25000
C2454       C  0.31428249  0.31746447  0.53431902    -0.23100
C2455       C  0.32061347  0.33932851  0.51085632     0.19900
C2456       C  0.34109590  0.36373734  0.51579359     0.24900
C2457       C  0.35582409  0.36714586  0.54444015    -0.23100
C2458       C  0.34791979  0.34603428  0.56838830     0.19800
F2459       F  0.35950210  0.34937255  0.59734232    -0.13000
F2460       F  0.32220994  0.30133219  0.58648784    -0.15400
F2461       F  0.34522228  0.38448553  0.49284656    -0.15400
F2462       F  0.30646518  0.33738642  0.48293719    -0.13000
C2463       C  0.17719536  0.33837797  0.49448798     0.25000
C2464       C  0.20104854  0.33165960  0.47336910    -0.23100
C2465       C  0.21084346  0.35504562  0.45377164     0.19900
C2466       C  0.19490854  0.38295487  0.45230185     0.24900
C2467       C  0.16895861  0.38928009  0.47164335    -0.23100
C2468       C  0.16161452  0.36669854  0.49374932     0.19800
F2469       F  0.13667511  0.37025021  0.51208672    -0.13000
F2470       F  0.16760226  0.31689180  0.51504492    -0.15400
F2471       F  0.20283853  0.40146762  0.42847725    -0.15400
F2472       F  0.23401850  0.34994629  0.43352265    -0.13000
C2473       C  0.32639028  0.14983326  0.43465575     0.25000
C2474       C  0.32756227  0.18133066  0.44235090    -0.23100
C2475       C  0.35490481  0.19273943  0.45542837     0.19900
C2476       C  0.38094194  0.17403476  0.45806350     0.24900
C2477       C  0.38107661  0.14397927  0.44594350    -0.23100
C2478       C  0.35277454  0.13128457  0.43683025     0.19800
F2479       F  0.35070914  0.10138527  0.42848688    -0.13000
F2480       F  0.29987720  0.13697731  0.42432183    -0.15400
F2481       F  0.40686977  0.18605560  0.47072203    -0.15400
F2482       F  0.35658790  0.22201802  0.46599464    -0.13000
C2483       C  0.16503359  0.16410775  0.56621581     0.25000
C2484       C  0.16265367  0.19577195  0.55998013    -0.23100
C2485       C  0.13379223  0.20763594  0.55100880     0.19900
C2486       C  0.10841823  0.18854641  0.54781719     0.24900
C2487       C  0.10973022  0.15760664  0.55732282    -0.23100
C2488       C  0.13888346  0.14509811  0.56465863     0.19800
F2489       F  0.14235997  0.11464280  0.57026360    -0.13000
F2490       F  0.19301320  0.15121619  0.57165009    -0.15400
F2491       F  0.08195006  0.20064885  0.53611864    -0.15400
F2492       F  0.13089977  0.23755344  0.54235656    -0.13000
C2493       C  0.32906115  0.15651816  0.58440579     0.25000
C2494       C  0.32097552  0.15204385  0.55326049    -0.23100
C2495       C  0.33668353  0.12910601  0.53641702     0.19900
C2496       C  0.35954921  0.11094147  0.55060686     0.24900
C2497       C  0.36678680  0.11510879  0.58183664    -0.23100
C2498       C  0.35130610  0.13802976  0.59854113     0.19800
F2499       F  0.35718610  0.14192608  0.62907952    -0.13000
F2500       F  0.31451837  0.17795121  0.60177867    -0.15400
F2501       F  0.37345426  0.08826112  0.53434066    -0.15400
F2502       F  0.32978257  0.12400351  0.50632822    -0.13000
C2503       C  0.14796414  0.13923961  0.46787392     0.25000
C2504       C  0.16220402  0.16173434  0.44943129    -0.23100
C2505       C  0.15211542  0.16609320  0.41900362     0.19900
C2506       C  0.13075277  0.14606472  0.40614793     0.24900
C2507       C  0.11796247  0.12216206  0.42388923    -0.23100
C2508       C  0.12566702  0.11975307  0.45521081     0.19800
F2509       F  0.11397570  0.09662722  0.47260219    -0.13000
F2510       F  0.15659792  0.13528495  0.49771704    -0.15400
F2511       F  0.12549936  0.14766549  0.37531984    -0.15400
F2512       F  0.16529482  0.18766882  0.40068808    -0.13000
C2513       C  0.49575590  0.17976243  0.33303855     0.25000
C2514       C  0.47166613  0.19712945  0.31920924    -0.23100
C2515       C  0.44315242  0.19806419  0.33352069     0.19900
C2516       C  0.43763707  0.17984447  0.35914224     0.24900
C2517       C  0.46104195  0.16078784  0.37251005    -0.23100
C2518       C  0.49050966  0.16178360  0.35951532     0.19800
F2519       F  0.51352047  0.14375108  0.37062768    -0.13000
F2520       F  0.52421954  0.17933719  0.32030768    -0.15400
F2521       F  0.40793271  0.17832101  0.36863992    -0.15400
F2522       F  0.41942350  0.21427068  0.32098174    -0.13000
C2523       C  0.52945329  0.31123317  0.33447293     0.25000
C2524       C  0.53369013  0.32085736  0.30383092    -0.23100
C2525       C  0.53173450  0.35238403  0.29726251     0.19900
C2526       C  0.52968676  0.37386988  0.32110330     0.24900
C2527       C  0.53201253  0.36447855  0.35229009    -0.23100
C2528       C  0.52805075  0.33279246  0.35840771     0.19800
F2529       F  0.52430545  0.32261042  0.38778566    -0.13000
F2530       F  0.52606905  0.28093209  0.34112018    -0.15400
F2531       F  0.52543153  0.40390588  0.31360923    -0.15400
F2532       F  0.53027122  0.36229350  0.26755387    -0.13000
C2533       C  0.57356416  0.18368788  0.14491159     0.25000
C2534       C  0.56370194  0.17936683  0.17562396    -0.23100
C2535       C  0.55249759  0.14996432  0.18382549     0.19900
C2536       C  0.55374443  0.12542666  0.16327510     0.24900
C2537       C  0.56696676  0.12876562  0.13398586    -0.23100
C2538       C  0.57483743  0.15866283  0.12419052     0.19800
F2539       F  0.58440904  0.16365312  0.09492599    -0.13000
F2540       F  0.58244821  0.21188441  0.13500937    -0.15400
F2541       F  0.54380052  0.09744300  0.17286877    -0.15400
F2542       F  0.54054344  0.14436254  0.21214937    -0.13000
C2543       C  0.41333040  0.37075899  0.14658110     0.25000
C2544       C  0.43875874  0.39101498  0.14735623    -0.23100
C2545       C  0.46396987  0.38296471  0.16613153     0.19900
C2546       C  0.46408707  0.35530957  0.18284046     0.24900
C2547       C  0.43959769  0.33436593  0.18019633    -0.23100
C2548       C  0.41449720  0.34206320  0.16139669     0.19800
F2549       F  0.39020929  0.32268648  0.15905814    -0.13000
F2550       F  0.38605295  0.37989654  0.13449878    -0.15400
F2551       F  0.48824874  0.34891890  0.20175304    -0.15400
F2552       F  0.48750727  0.40301472  0.17005564    -0.13000
C2553       C  0.54515760  0.36006819  0.15479444     0.25000
C2554       C  0.53208612  0.33339458  0.14172560    -0.23100
C2555       C  0.52405733  0.33373816  0.11023630     0.19900
C2556       C  0.53314747  0.35813781  0.09156819     0.24900
C2557       C  0.55071731  0.38217202  0.10398706    -0.23100
C2558       C  0.55372363  0.38461197  0.13600219     0.19800
F2559       F  0.56792666  0.40916970  0.14883281    -0.13000
F2560       F  0.55120223  0.36194127  0.18548261    -0.15400
F2561       F  0.52831208  0.35644229  0.06065581    -0.15400
F2562       F  0.50972987  0.30949329  0.09686056    -0.13000
C2563       C  0.43140363  0.15286672  0.15868381     0.25000
C2564       C  0.46193071  0.16048663  0.15242198    -0.23100
C2565       C  0.47677128  0.14793743  0.12670352     0.19900
C2566       C  0.46089049  0.12810821  0.10701972     0.24900
C2567       C  0.42965524  0.12218664  0.11215506    -0.23100
C2568       C  0.41505184  0.13474644  0.13810235     0.19800
F2569       F  0.38410513  0.13264041  0.14143492    -0.13000
F2570       F  0.41638386  0.16607996  0.18264341    -0.15400
F2571       F  0.47480820  0.11777287  0.08106528    -0.15400
F2572       F  0.50560422  0.15693043  0.11929385    -0.13000
C2573       C  0.36558333  0.55361000  0.30420880     0.25000
C2574       C  0.37430446  0.53737141  0.33163470    -0.23100
C2575       C  0.35466114  0.51338349  0.34088614     0.19900
C2576       C  0.32549551  0.50990039  0.32741870     0.24900
C2577       C  0.31506183  0.53005668  0.30381268    -0.23100
C2578       C  0.33629856  0.55040505  0.29111936     0.19800
F2579       F  0.32856415  0.56812908  0.26643349    -0.13000
F2580       F  0.38428059  0.57392698  0.29005302    -0.15400
F2581       F  0.30695951  0.48764026  0.33894159    -0.15400
F2582       F  0.36178770  0.49591697  0.36591170    -0.13000
C2583       C  0.32878986  0.49998533  0.17684795     0.25000
C2584       C  0.32633684  0.48293324  0.20465024    -0.23100
C2585       C  0.35386908  0.47348844  0.21897537     0.19900
C2586       C  0.38194701  0.47572035  0.20307322     0.24900
C2587       C  0.38249116  0.48518447  0.17168188    -0.23100
C2588       C  0.35679200  0.50196834  0.16115696     0.19800
F2589       F  0.35725390  0.51558856  0.13294338    -0.13000
F2590       F  0.30381369  0.51375924  0.16385431    -0.15400
F2591       F  0.40825924  0.46867833  0.21851619    -0.15400
F2592       F  0.35366391  0.46140406  0.24786376    -0.13000
C2593       C  0.15300520  0.56825265  0.16910438     0.25000
C2594       C  0.18358622  0.55931502  0.16336226    -0.23100
C2595       C  0.19200851  0.55212997  0.13290434     0.19900
C2596       C  0.17103768  0.55536294  0.10874918     0.24900
C2597       C  0.14136872  0.56712412  0.11400391    -0.23100
C2598       C  0.13188306  0.57157310  0.14462941     0.19800
F2599       F  0.10229451  0.57902009  0.15093520    -0.13000
F2600       F  0.14312580  0.57197304  0.19850424    -0.15400
F2601       F  0.18021283  0.54848385  0.07966258    -0.15400
F2602       F  0.22061605  0.54127704  0.12656662    -0.13000
C2603       C  0.13164379  0.44606092  0.36127111     0.25000
C2604       C  0.14610225  0.45717854  0.38821220    -0.23100
C2605       C  0.17641157  0.46844265  0.38521925     0.19900
C2606       C  0.19347995  0.46294887  0.35853159     0.24900
C2607       C  0.18022684  0.44775466  0.33315266    -0.23100
C2608       C  0.14858601  0.44088993  0.33432684     0.19800
F2609       F  0.13380825  0.42912662  0.30938186    -0.13000
F2610       F  0.10104667  0.44041280  0.36045242    -0.15400
F2611       F  0.22288670  0.47327736  0.35742586    -0.15400
F2612       F  0.18992502  0.48436356  0.40846943    -0.13000
C2613       C  0.13142161  0.53553642  0.34374980     0.25000
C2614       C  0.15376781  0.55284005  0.32781548    -0.23100
C2615       C  0.15921138  0.58323843  0.33715473     0.19900
C2616       C  0.14130456  0.59656993  0.36016082     0.24900
C2617       C  0.11842434  0.57953208  0.37543796    -0.23100
C2618       C  0.11435847  0.54861246  0.36771897     0.19800
F2619       F  0.09157415  0.53207160  0.38109068    -0.13000
F2620       F  0.12468078  0.50650861  0.33496618    -0.15400
F2621       F  0.14388719  0.62724888  0.36495027    -0.15400
F2622       F  0.17986076  0.60112322  0.32213477    -0.13000
C2623       C  0.12746349  0.47102826  0.15428604     0.25000
C2624       C  0.14906606  0.45142470  0.16872009    -0.23100
C2625       C  0.15018842  0.42037225  0.16064036     0.19900
C2626       C  0.12873257  0.40855243  0.14002642     0.24900
C2627       C  0.10685794  0.42793403  0.12577111    -0.23100
C2628       C  0.10669166  0.45935542  0.13253075     0.19800
F2629       F  0.08512025  0.47816421  0.11976345    -0.13000
F2630       F  0.12607903  0.50124256  0.16174179    -0.15400
F2631       F  0.12814026  0.37774140  0.13529390    -0.15400
F2632       F  0.17053539  0.40099267  0.17452674    -0.13000
C2633       C  0.79392244  0.86277313  0.03150694     0.25000
C2634       C  0.80751893  0.83345991  0.02982826    -0.23100
C2635       C  0.83817777  0.83176227  0.01886242     0.19900
C2636       C  0.85582355  0.85831893  0.01510714     0.24900
C2637       C  0.84442506  0.88687233  0.02505717    -0.23100
C2638       C  0.81204971  0.88927414  0.02803730     0.19800
F2639       F  0.79806112  0.91719222  0.02851641    -0.13000
F2640       F  0.76334078  0.86591158  0.03679469    -0.15400
F2641       F  0.88572727  0.85539407  0.00662190    -0.15400
F2642       F  0.85203012  0.80435119  0.01327367    -0.13000
C2643       C  0.65101723  0.81454353  0.97372503     0.25000
C2644       C  0.68318076  0.81719210  0.97299696    -0.23100
C2645       C  0.69595840  0.84675957  0.97248373     0.19900
C2646       C  0.67713280  0.87283678  0.96924577     0.24900
C2647       C  0.64491661  0.86996846  0.96519543    -0.23100
C2648       C  0.63213668  0.84057016  0.97069852     0.19800
F2649       F  0.60119798  0.83686240  0.97261288    -0.13000
F2650       F  0.63784702  0.78667941  0.97842067    -0.15400
F2651       F  0.69046030  0.90092794  0.97121358    -0.15400
F2652       F  0.72668114  0.85048026  0.97675833    -0.13000
C2653       C  0.64309103  0.71592060  0.05531041     0.25000
C2654       C  0.66880558  0.70170688  0.06920315    -0.23100
C2655       C  0.66873227  0.66927435  0.07131671     0.19900
C2656       C  0.64265527  0.65213701  0.06297360     0.24900
C2657       C  0.61515819  0.66688761  0.05382624    -0.23100
C2658       C  0.61717476  0.69867566  0.04679395     0.19800
F2659       F  0.59372449  0.71347596  0.03219117    -0.13000
F2660       F  0.64276230  0.74665738  0.04993193    -0.15400
F2661       F  0.64438924  0.62113054  0.06512204    -0.15400
F2662       F  0.69382502  0.65380376  0.08190768    -0.13000
C2663       C  0.88666143  0.67952211  0.96035248     0.25000
C2664       C  0.88340440  0.65106879  0.94545521    -0.23100
C2665       C  0.85339502  0.64025299  0.93954390     0.19900
C2666       C  0.82755023  0.65910653  0.94537083     0.24900
C2667       C  0.83138568  0.68886859  0.95744242    -0.23100
C2668       C  0.86136716  0.69847076  0.96523203     0.19800
F2669       F  0.86623926  0.72638030  0.97831769    -0.13000
F2670       F  0.91494245  0.68973556  0.96891422    -0.15400
F2671       F  0.79888128  0.64781493  0.94055111    -0.15400
F2672       F  0.84899747  0.61165195  0.92811330    -0.13000
C2673       C  0.65251307  0.60254217  0.97553804     0.25000
C2674       C  0.63072128  0.61319265  0.95400576    -0.23100
C2675       C  0.62694206  0.64497285  0.94964840     0.19900
C2676       C  0.64762828  0.66545577  0.96311745     0.24900
C2677       C  0.67190547  0.65439273  0.98160077    -0.23100
C2678       C  0.67296406  0.62296552  0.98929516     0.19800
F2679       F  0.69539655  0.61152237  0.00799786    -0.13000
F2680       F  0.65578742  0.57197019  0.98103558    -0.15400
F2681       F  0.64466715  0.69594198  0.95702871    -0.15400
F2682       F  0.60518769  0.65615895  0.93014825    -0.13000
C2683       C  0.84406199  0.64305941  0.04712728     0.25000
C2684       C  0.83191643  0.66303893  0.06948676    -0.23100
C2685       C  0.84319463  0.66211939  0.09967206     0.19900
C2686       C  0.86443410  0.63960038  0.10812178     0.24900
C2687       C  0.87608649  0.61891911  0.08599162    -0.23100
C2688       C  0.86645529  0.62137862  0.05527267     0.19800
F2689       F  0.87682783  0.60125142  0.03383139    -0.13000
F2690       F  0.83339866  0.64388950  0.01766760    -0.15400
F2691       F  0.87210271  0.63661520  0.13838048    -0.15400
F2692       F  0.83170561  0.68123408  0.12148804    -0.13000
C2693       C  0.30659601  0.83616477  0.44336337     0.25000
C2694       C  0.30703639  0.82027842  0.47135736    -0.23100
C2695       C  0.32499843  0.83250683  0.49591827     0.19900
C2696       C  0.34296999  0.85910508  0.49191928     0.24900
C2697       C  0.34370855  0.87420796  0.46324984    -0.23100
C2698       C  0.32502622  0.86193075  0.43905899     0.19800
F2699       F  0.32633054  0.87324455  0.40987226    -0.13000
F2700       F  0.28907571  0.82623168  0.41940258    -0.15400
F2701       F  0.36119765  0.86846083  0.51550873    -0.15400
F2702       F  0.32640708  0.81804994  0.52368109    -0.13000
C2703       C  0.15962365  0.85113620  0.57330466     0.25000
C2704       C  0.14766771  0.86996793  0.54900047    -0.23100
C2705       C  0.15766792  0.86407647  0.51885200     0.19900
C2706       C  0.17765580  0.83938613  0.51320156     0.24900
C2707       C  0.18834915  0.82027899  0.53747745    -0.23100
C2708       C  0.17990097  0.82698247  0.56758029     0.19800
F2709       F  0.18944705  0.80879607  0.59127436    -0.13000
F2710       F  0.15083726  0.85557879  0.60298737    -0.15400
F2711       F  0.18600247  0.83352454  0.48364911    -0.15400
F2712       F  0.14777377  0.88126313  0.49466095    -0.13000
C2713       C  0.14911269  0.64466015  0.43000269     0.25000
C2714       C  0.11933091  0.65472732  0.43786872    -0.23100
C2715       C  0.11590726  0.68561531  0.44691084     0.19900
C2716       C  0.13941074  0.70689725  0.44229241     0.24900
C2717       C  0.16856067  0.69763286  0.43135422    -0.23100
C2718       C  0.17340933  0.66589712  0.42646824     0.19800
F2719       F  0.20157604  0.65532085  0.41825404    -0.13000
F2720       F  0.15465073  0.61446236  0.42491901    -0.15400
F2721       F  0.13337243  0.73678612  0.44891712    -0.15400
F2722       F  0.08851952  0.69583066  0.45791005    -0.13000
C2723       C  0.33756351  0.65313756  0.53226182     0.25000
C2724       C  0.32476262  0.67570230  0.55190986    -0.23100
C2725       C  0.34225483  0.68590862  0.57698506     0.19900
C2726       C  0.37182668  0.67402451  0.58228134     0.24900
C2727       C  0.38541140  0.65270875  0.56151471    -0.23100
C2728       C  0.36757768  0.64214682  0.53678968     0.19800
F2729       F  0.37945953  0.62173905  0.51642522    -0.13000
F2730       F  0.32156168  0.64265825  0.50753797    -0.15400
F2731       F  0.38676735  0.68311950  0.60824299    -0.15400
F2732       F  0.33058826  0.70710280  0.59666286    -0.13000
C2733       C  0.10246594  0.64822581  0.54761501     0.25000
C2734       C  0.11064131  0.61737396  0.55224565    -0.23100
C2735       C  0.13360951  0.60418844  0.53391936     0.19900
C2736       C  0.15228877  0.62282365  0.51600962     0.24900
C2737       C  0.14836865  0.65490766  0.51668670    -0.23100
C2738       C  0.12155906  0.66717978  0.53009299     0.19800
F2739       F  0.11540983  0.69775252  0.52885799    -0.13000
F2740       F  0.07810413  0.66069827  0.56250276    -0.15400
F2741       F  0.17580501  0.60968331  0.50026552    -0.15400
F2742       F  0.13998673  0.57368021  0.53595950    -0.13000
C2743       C  0.30693275  0.61765685  0.43720121     0.25000
C2744       C  0.31261949  0.64952158  0.43811795    -0.23100
C2745       C  0.34235028  0.66008438  0.43095704     0.19900
C2746       C  0.36517375  0.63961624  0.42139891     0.24900
C2747       C  0.35875055  0.60816369  0.41826261    -0.23100
C2748       C  0.32978814  0.59727494  0.42757032     0.19800
F2749       F  0.32334556  0.56677428  0.42668669    -0.13000
F2750       F  0.27906500  0.60604673  0.44497013    -0.15400
F2751       F  0.39305442  0.65109177  0.41394346    -0.15400
F2752       F  0.34948679  0.69035839  0.43285959    -0.13000
loop_ 
_geom_bond_atom_site_label_1 
_geom_bond_atom_site_label_2 
_geom_bond_distance 
_geom_bond_site_symmetry_2 
_ccdc_geom_bond_type 
O1           C17   1.274       .  A
O1           Zn7   2.010       .  S
C2           O18   1.264       .  A
C2           O15   1.287       .  A
C2         C2707   1.474       .  S
O3           C16   1.274       .  A
O3          Cd10   2.138       .  S
O4           C22   1.271       .  A
O4          Cd13   2.033       .  S
O5           C19   1.273       .  A
O5           Cd9   2.036       .  S
O6           C17   1.275       .  A
O6           Cd9   2.043       .  S
Zn7          O18   1.926       .  S
Zn7          O20   1.944       .  S
Zn7          O12   1.894       .  S
O8           C19   1.286       .  A
O8          Cd13   2.121       .  S
Cd9          O11   2.060       .  S
Cd9          O12   1.946       .  S
Cd10         O14   2.064       .  S
Cd10         O23   2.141       .  S
Cd10         O12   1.975       .  S
O11          C21   1.274       .  A
O12         Cd13   1.957       .  S
Cd13         O15   2.134       .  S
O14          C21   1.275       .  A
C16          O20   1.259       .  A
C16        C2717   1.504       .  S
C17        C2737   1.474       .  S
C19        C2724   1.488       .  S
C21        C2744   1.485       .  S
C22          O23   1.293       .  A
C22        C2694   1.498       .  S
O24          C40   1.267       .  A
O24         Zn30   1.949       .  S
C25          O41   1.274       .  A
C25          O38   1.272       .  A
C25        C2684   1.461       .  S
O26          C39   1.288       .  A
O26         Cd33   2.164       .  S
O27          C45   1.271   1_554  A
O27         Cd36   2.034       .  S
O28          C42   1.280       .  A
O28         Cd32   2.116       .  S
O29          C40   1.288       .  A
O29         Cd32   2.147       .  S
Zn30         O41   2.002       .  S
Zn30         O43   1.906   1_554  S
Zn30         O35   1.858       .  S
O31          C42   1.267       .  A
O31         Cd36   2.016       .  S
Cd32         O34   2.007       .  S
Cd32         O35   1.977       .  S
Cd33         O37   2.154       .  S
Cd33         O46   2.083       .  S
Cd33         O35   1.973   1_556  S
O34          C44   1.266   1_554  A
O35         Cd36   1.951       .  S
Cd36         O38   2.045       .  S
O37          C44   1.291       .  A
C39          O43   1.261       .  A
C39        C2667   1.485       .  S
C40        C2634   1.500       .  S
C42        C2654   1.504       .  S
C44        C2644   1.474       .  S
C45          O46   1.279       .  A
C45        C2677   1.473       .  S
O47          C63   1.271       .  A
O47         Zn53   1.971       .  S
C48          O64   1.280       .  A
C48          O61   1.277       .  A
C48        C2624   1.467       .  S
O49          C62   1.285       .  A
O49         Cd56   2.132       .  S
O50          C68   1.277       .  A
O50         Cd59   2.066       .  S
O51          C65   1.281       .  A
O51         Cd55   2.094       .  S
O52          C63   1.287       .  A
O52         Cd55   2.139       .  S
Zn53         O64   2.004       .  S
Zn53         O66   1.913       .  S
Zn53         O58   1.847       .  S
O54          C65   1.270       .  A
O54         Cd59   2.028       .  S
Cd55         O57   2.012       .  S
Cd55         O58   1.950       .  S
Cd56         O60   2.143       .  S
Cd56         O69   2.087       .  S
Cd56         O58   1.954       .  S
O57          C67   1.263       .  A
O58         Cd59   1.929       .  S
Cd59         O61   2.063       .  S
O60          C67   1.288       .  A
C62          O66   1.262       .  A
C62        C2594   1.475       .  S
C63        C2584   1.501       .  S
C65        C2607   1.490       .  S
C67        C2577   1.494       .  S
C68          O69   1.281       .  A
C68        C2614   1.488       .  S
O70          C86   1.268       .  A
O70         Zn76   1.960       .  S
C71          O87   1.274       .  A
C71          O84   1.276       .  A
C71        C2564   1.454       .  S
O72          C85   1.278       .  A
O72         Cd79   2.143       .  S
O73          C91   1.275       .  A
O73         Cd82   2.061       .  S
O74          C88   1.278       .  A
O74         Cd78   2.087       .  S
O75          C86   1.286       .  A
O75         Cd78   2.102       .  S
Zn76         O87   2.005       .  S
Zn76         O89   1.956       .  S
Zn76         O81   1.883       .  S
O77          C88   1.273       .  A
O77         Cd82   2.058       .  S
Cd78         O80   1.994       .  S
Cd78         O81   1.936       .  S
Cd79         O83   2.140       .  S
Cd79         O92   2.039       .  S
Cd79         O81   1.965       .  S
O80          C90   1.264       .  A
O81         Cd82   1.964       .  S
Cd82         O84   2.056       .  S
O83          C90   1.290       .  A
C85          O89   1.262       .  A
C85        C2534   1.505       .  S
C86        C2514   1.480       .  S
C88        C2547   1.480       .  S
C90        C2524   1.468       .  S
C91          O92   1.271       .  A
C91        C2554   1.479       .  S
O93         C109   1.264       .  A
O93         Zn99   1.942       .  S
C94         O110   1.276       .  A
C94         O107   1.278       .  A
C94        C2504   1.473       .  S
O95         C108   1.287       .  A
O95        Cd102   2.157       .  S
O96         C114   1.279       .  A
O96        Cd105   2.084       .  S
O97         C111   1.282       .  A
O97        Cd101   2.100       .  S
O98         C109   1.287       .  A
O98        Cd101   2.138       .  S
Zn99        O110   1.992       .  S
Zn99        O112   1.864       .  S
Zn99        O104   1.842       .  S
O100        C111   1.268       .  A
O100       Cd105   2.025       .  S
Cd101       O103   2.011       .  S
Cd101       O104   1.948       .  S
Cd102       O106   2.162       .  S
Cd102       O115   2.085       .  S
Cd102       O104   1.964       .  S
O103        C113   1.269       .  A
O104       Cd105   1.951       .  S
Cd105       O107   2.081       .  S
O106        C113   1.294       .  A
C108        O112   1.257       .  A
C108       C2484   1.472       .  S
C109       C2464   1.495       .  S
C111       C2474   1.488       .  S
C113       C2454   1.491       .  S
C114        O115   1.280       .  A
C114       C2494   1.491       .  S
O116        C132   1.277       .  A
O116       Zn122   2.009       .  S
C117        O133   1.268       .  A
C117        O130   1.285       .  A
C117       C2394   1.496       .  S
O118        C131   1.286       .  A
O118       Cd125   2.144       .  S
O119        C137   1.263       .  A
O119       Cd128   1.985       .  S
O120        C134   1.267       .  A
O120       Cd124   2.028       .  S
O121        C132   1.277       .  A
O121       Cd124   2.079       .  S
Zn122       O133   1.957       .  S
Zn122       O135   1.899       .  S
Zn122       O127   1.844       .  S
O123        C134   1.276       .  A
O123       Cd128   2.085       .  S
Cd124       O126   2.085       .  S
Cd124       O127   1.955       .  S
Cd125       O129   2.071       .  S
Cd125       O138   2.155       .  S
Cd125       O127   1.971       .  S
O126        C136   1.279       .  A
O127       Cd128   1.957       .  S
Cd128       O130   2.122       .  S
O129        C136   1.278       .  A
C131        O135   1.260       .  A
C131       C2414   1.491       .  S
C132       C2434   1.472       .  S
C134       C2424   1.469       .  S
C136       C2444   1.492       .  S
C137        O138   1.291       .  A
C137       C2407   1.487       .  S
O139        C155   1.274       .  A
O139       Zn145   1.992       .  S
C140        O156   1.267       .  A
C140        O153   1.286       .  A
C140       C2334   1.499       .  S
O141        C154   1.288       .  A
O141       Cd148   2.158       .  S
O142        C160   1.261   1_455  A
O142       Cd151   1.972       .  S
O143        C157   1.268       .  A
O143       Cd147   2.022       .  S
O144        C155   1.274       .  A
O144       Cd147   2.053       .  S
Zn145       O156   1.955       .  S
Zn145       O158   1.898   1_455  S
Zn145       O150   1.838       .  S
O146        C157   1.279       .  A
O146       Cd151   2.102       .  S
Cd147       O149   2.053       .  S
Cd147       O150   1.946       .  S
Cd148       O152   2.074       .  S
Cd148       O161   2.148       .  S
Cd148       O150   1.973   1_655  S
O149        C159   1.274   1_455  A
O150       Cd151   1.955       .  S
Cd151       O153   2.136       .  S
O152        C159   1.277       .  A
C154        O158   1.261       .  A
C154       C2367   1.488       .  S
C155       C2387   1.458       .  S
C157       C2354   1.497       .  S
C159       C2377   1.472       .  S
C160        O161   1.291       .  A
C160       C2347   1.489       .  S
O162        C178   1.270   1_545  A
O162       Zn168   1.971       .  S
C163        O179   1.275       .  A
C163        O176   1.276       .  A
C163       C2317   1.478       .  S
O164        C177   1.283       .  A
O164       Cd171   2.137       .  S
O165        C183   1.277       .  A
O165       Cd174   2.081   1_545  S
O166        C180   1.280       .  A
O166       Cd170   2.122       .  S
O167        C178   1.291       .  A
O167       Cd170   2.138       .  S
Zn168       O179   1.995   1_545  S
Zn168       O181   1.953       .  S
Zn168       O173   1.870       .  S
O169        C180   1.266       .  A
O169       Cd174   2.029       .  S
Cd170       O172   2.017   1_565  S
Cd170       O173   1.951   1_565  S
Cd171       O175   2.136       .  S
Cd171       O184   2.034       .  S
Cd171       O173   1.952       .  S
O172        C182   1.267       .  A
O173       Cd174   1.965   1_545  S
Cd174       O176   2.043       .  S
O175        C182   1.289       .  A
C177        O181   1.267       .  A
C177       C2297   1.481       .  S
C178       C2274   1.482       .  S
C180       C2307   1.486       .  S
C182       C2287   1.472       .  S
C183        O184   1.272       .  A
C183       C2324   1.479       .  S
O185        C201   1.275       .  A
O185       Zn191   2.005       .  S
C186        O202   1.265       .  A
C186        O199   1.285       .  A
C186       C2214   1.488       .  S
O187        C200   1.274       .  A
O187       Cd194   2.144       .  S
O188        C206   1.265       .  A
O188       Cd197   2.001       .  S
O189        C203   1.271       .  A
O189       Cd193   2.042       .  S
O190        C201   1.279       .  A
O190       Cd193   2.062       .  S
Zn191       O202   1.947       .  S
Zn191       O204   1.944       .  S
Zn191       O196   1.903       .  S
O192        C203   1.277       .  A
O192       Cd197   2.079       .  S
Cd193       O195   2.092       .  S
Cd193       O196   1.968       .  S
Cd194       O198   2.042       .  S
Cd194       O207   2.150       .  S
Cd194       O196   1.976       .  S
O195        C205   1.277       .  A
O196       Cd197   1.954       .  S
Cd197       O199   2.111       .  S
O198        C205   1.273       .  A
C200        O204   1.259       .  A
C200       C2234   1.506       .  S
C201       C2264   1.474       .  S
C203       C2244   1.473       .  S
C205       C2254   1.479       .  S
C206        O207   1.292       .  A
C206       C2224   1.472       .  S
C208        C209   1.544       .  S
C208        C214   1.541       .  S
C208        C212   1.527       .  S
C208       C2204   1.541       .  S
C209        H216   1.085       .  S
C209        C210   1.377       .  D
C210        C211   1.557       .  S
C210        C281   1.496       .  S
C211        C215   1.522       .  S
C211        C213   1.561       .  S
C211        H217   1.110       .  S
C212        H218   1.080       .  S
C212        C213   1.356       .  D
C213       C2247   1.493       .  S
C214        H219   1.087       .  S
C214        C215   1.360       .  D
C215       C2314   1.476       .  S
C220        C221   1.530       .  S
C220        C226   1.549       .  S
C220        C224   1.536       .  S
C220       C2194   1.545       .  S
C221        H228   1.078       .  S
C221        C222   1.356       .  D
C222        C223   1.557       .  S
C222       C2294   1.506       .  S
C223        C227   1.529       .  S
C223        C225   1.577       .  S
C223        H229   1.110       .  S
C224        H230   1.085       .  S
C224        C225   1.381       .  D
C225        C295   1.513       .  S
C226        H231   1.087       .  S
C226        C227   1.357       .  D
C227       C2374   1.480       .  S
C232        C233   1.535       .  S
C232        C238   1.533       .  S
C232        C236   1.547       .  S
C232       C2184   1.550       .  S
C233        H240   1.080       .  S
C233        C234   1.364       .  D
C234        C235   1.558       .  S
C234       C2174   1.509       .  S
C235        C239   1.540       .  S
C235        C237   1.568       .  S
C235        H241   1.110       .  S
C236        H242   1.085   1_565  S
C236        C237   1.382       .  D
C237        C301   1.511       .  S
C238        H243   1.087       .  S
C238        C239   1.350       .  D
C239       C2257   1.474       .  S
C244        C245   1.556       .  S
C244        C250   1.525       .  S
C244        C248   1.528       .  S
C244       C2167   1.543       .  S
C245        H252   1.083       .  S
C245        C246   1.387       .  D
C246        C247   1.566       .  S
C246        C296   1.510       .  S
C247        C251   1.538       .  S
C247        C249   1.558       .  S
C247        H253   1.109       .  S
C248        H254   1.085       .  S
C248        C249   1.365       .  D
C249       C2357   1.510       .  S
C250        H255   1.089       .  S
C250        C251   1.348       .  D
C251       C2507   1.474       .  S
C256        C257   1.528       .  S
C256        C262   1.533       .  S
C256        C260   1.541       .  S
C256       C2154   1.547       .  S
C257        H264   1.077       .  S
C257        C258   1.366       .  D
C258        C259   1.551       .  S
C258       C2487   1.504       .  S
C259        C263   1.536       .  S
C259        C261   1.567       .  S
C259        H265   1.109       .  S
C260        H266   1.085   1_455  S
C260        C261   1.382       .  D
C261        C300   1.508       .  S
C262        H267   1.088       .  S
C262        C263   1.349       .  D
C263       C2144   1.466       .  S
C268        C269   1.561       .  S
C268        C274   1.530       .  S
C268        C272   1.518       .  S
C268       C2704   1.534       .  S
C269        H276   1.082       .  S
C269        C270   1.386       .  D
C270        C271   1.556       .  S
C270        C298   1.498       .  S
C271        C275   1.533       .  S
C271        C273   1.546       .  S
C271        H277   1.111       .  S
C272        H278   1.089       .  S
C272        C273   1.347       .  D
C273       C2124   1.474       .  S
C274        H279   1.088       .  S
C274        C275   1.358       .  D
C275       C2134   1.473       .  S
O280        C296   1.285       .  A
O280       Zn286   2.113   1_455  S
C281        O297   1.286       .  A
C281        O294   1.276       .  A
O282        C295   1.286       .  A
O282       Cd289   2.136       .  S
O283        C301   1.276       .  A
O283       Cd292   2.093       .  S
O284        C298   1.283       .  A
O284       Cd288   2.140   1_565  S
O285        C296   1.282       .  A
O285       Cd288   2.125       .  S
Zn286       O297   2.104   1_545  S
Zn286       O299   2.083       .  S
Zn286       O291   2.000   1_655  S
O287        C298   1.278       .  A
O287       Cd292   2.099   1_455  S
Cd288       O290   2.113       .  S
Cd288       O291   2.045       .  S
Cd289       O293   2.131   1_655  S
Cd289       O302   2.156       .  S
Cd289       O291   2.043   1_655  S
O290        C300   1.281       .  A
O291       Cd292   2.036   1_445  S
Cd292       O294   2.095       .  S
O293        C300   1.285       .  A
C295        O299   1.280       .  A
C301        O302   1.286   1_565  A
O303        C319   1.261       .  A
O303       Zn309   1.911       .  S
C304        O320   1.272       .  A
C304        O317   1.278       .  A
C304       C2114   1.475       .  S
O305        C318   1.277       .  A
O305       Cd312   2.149       .  S
O306        C324   1.276       .  A
O306       Cd315   2.072       .  S
O307        C321   1.285       .  A
O307       Cd311   2.128       .  S
O308        C319   1.288       .  A
O308       Cd311   2.149       .  S
Zn309       O320   1.973       .  S
Zn309       O322   1.951       .  S
Zn309       O314   1.876       .  S
O310        C321   1.271       .  A
O310       Cd315   2.032       .  S
Cd311       O313   2.027       .  S
Cd311       O314   1.960       .  S
Cd312       O316   2.131       .  S
Cd312       O325   2.042       .  S
Cd312       O314   1.962       .  S
O313        C323   1.270       .  A
O314       Cd315   1.958       .  S
Cd315       O317   2.071       .  S
O316        C323   1.292       .  A
C318        O322   1.259       .  A
C318       C2094   1.506       .  S
C319       C2197   1.497       .  S
C321       C2084   1.502       .  S
C323       C2077   1.495       .  S
C324        O325   1.272       .  A
C324       C2104   1.474       .  S
O326        C342   1.260       .  A
O326       Zn332   1.914       .  S
C327        O343   1.272       .  A
C327        O340   1.273       .  A
C327       C2064   1.456       .  S
O328        C341   1.288       .  A
O328       Cd335   2.182       .  S
O329        C347   1.274   1_655  A
O329       Cd338   2.047       .  S
O330        C344   1.281       .  A
O330       Cd334   2.121       .  S
O331        C342   1.288       .  A
O331       Cd334   2.158       .  S
Zn332       O343   1.964       .  S
Zn332       O345   1.854   1_655  S
Zn332       O337   1.821       .  S
O333        C344   1.266       .  A
O333       Cd338   2.011       .  S
Cd334       O336   1.990       .  S
Cd334       O337   1.968       .  S
Cd335       O339   2.139       .  S
Cd335       O348   2.080       .  S
Cd335       O337   1.967   1_455  S
O336        C346   1.265   1_655  A
O337       Cd338   1.951       .  S
Cd338       O340   2.051       .  S
O339        C346   1.293       .  A
C341        O345   1.253       .  A
C341       C2054   1.492       .  S
C342       C2034   1.496       .  S
C344       C2177   1.499       .  S
C346       C2047   1.488       .  S
C347        O348   1.279       .  A
C347       C2137   1.473       .  S
C349        C350   1.514       .  S
C349        C355   1.533       .  S
C349        C353   1.559       .  S
C349       C2024   1.532       .  S
C350        H357   1.089       .  S
C350        C351   1.345       .  D
C351        C352   1.548       .  S
C351       C2057   1.475       .  S
C352        C356   1.524       .  S
C352        C354   1.558       .  S
C352        H358   1.111       .  S
C353        H359   1.082       .  S
C353        C354   1.386       .  D
C354        C439   1.497       .  S
C355        H360   1.087       .  S
C355        C356   1.361       .  D
C356       C2734   1.470       .  S
C361        C362   1.531       .  S
C361        C367   1.525       .  S
C361        C365   1.551       .  S
C361       C2467   1.544       .  S
C362        H369   1.078       .  S
C362        C363   1.368       .  D
C363        C364   1.558       .  S
C363       C2604   1.512       .  S
C364        C368   1.531       .  S
C364        C366   1.563       .  S
C364        H370   1.110       .  S
C365        H371   1.085       .  S
C365        C366   1.385       .  D
C366        C437   1.503       .  S
C367        H372   1.089       .  S
C367        C368   1.345       .  D
C368       C2384   1.469       .  S
C373        C374   1.538       .  S
C373        C379   1.528       .  S
C373        C377   1.538       .  S
C373       C2227   1.550       .  S
C374        H381   1.085       .  S
C374        C375   1.380       .  D
C375        C376   1.577       .  S
C375        C442   1.515       .  S
C376        C380   1.536       .  S
C376        C378   1.560       .  S
C376        H382   1.109       .  S
C377        H383   1.082       .  S
C377        C378   1.367       .  D
C378       C2014   1.524       .  S
C379        H384   1.087       .  S
C379        C380   1.351       .  D
C380       C2067   1.463       .  S
C385        C386   1.566       .  S
C385        C391   1.529       .  S
C385        C389   1.515       .  S
C385       C2404   1.535       .  S
C386        H393   1.083       .  S
C386        C387   1.390       .  D
C387        C388   1.557       .  S
C387        C436   1.511       .  S
C388        C392   1.534       .  S
C388        C390   1.546       .  S
C388        H394   1.109       .  S
C389        H395   1.089       .  S
C389        C390   1.342       .  D
C390       C2364   1.476       .  S
C391        H396   1.087       .  S
C391        C392   1.363       .  D
C392       C2117   1.475       .  S
C397        C398   1.515       .  S
C397        C403   1.532       .  S
C397        C401   1.557       .  S
C397       C2007   1.538       .  S
C398        H405   1.089       .  S
C398        C399   1.349       .  D
C399        C400   1.561       .  S
C399       C2097   1.493       .  S
C400        C404   1.532       .  S
C400        C402   1.563       .  S
C400        H406   1.110       .  S
C401        H407   1.082       .  S
C401        C402   1.383       .  D
C402        C422   1.505       .  S
C403        H408   1.087       .  S
C403        C404   1.365       .  D
C404       C1994   1.478       .  S
C409        C410   1.550       .  S
C409        C415   1.523       .  S
C409        C413   1.520       .  S
C409       C1984   1.535       .  S
C410        H417   1.083       .  S
C410        C411   1.388       .  D
C411        C412   1.585       .  S
C411        C441   1.521       .  S
C412        C416   1.544       .  S
C412        C414   1.561       .  S
C412        H418   1.110       .  S
C413        H419   1.087       .  S
C413        C414   1.360       .  D
C414       C2714   1.509       .  S
C415        H420   1.089       .  S
C415        C416   1.348       .  D
C416       C2617   1.477       .  S
O421        C437   1.284       .  A
O421       Zn427   2.099   1_455  S
C422        O438   1.281       .  A
C422        O435   1.281       .  A
O423        C436   1.285       .  A
O423       Cd430   2.155       .  S
O424        C442   1.277       .  A
O424       Cd433   2.101       .  S
O425        C439   1.280       .  A
O425       Cd429   2.109       .  S
O426        C437   1.280       .  A
O426       Cd429   2.117       .  S
Zn427       O438   2.094       .  S
Zn427       O440   2.046       .  S
Zn427       O432   1.992   1_655  S
O428        C439   1.282       .  A
O428       Cd433   2.132   1_455  S
Cd429       O431   2.112       .  S
Cd429       O432   2.039       .  S
Cd430       O434   2.173   1_655  S
Cd430       O443   2.164       .  S
Cd430       O432   2.054   1_655  S
O431        C441   1.279       .  A
O432       Cd433   2.045   1_455  S
Cd433       O435   2.118       .  S
O434        C441   1.291       .  A
C436        O440   1.278       .  A
C442        O443   1.290       .  A
C444        C445   1.561       .  S
C444        C450   1.526       .  S
C444        C448   1.518       .  S
C444       C1974   1.533       .  S
C445        H452   1.082       .  S
C445        C446   1.389       .  D
C446        C447   1.559       .  S
C446        C537   1.505       .  S
C447        C451   1.534       .  S
C447        C449   1.543       .  S
C447        H453   1.110       .  S
C448        H454   1.089       .  S
C448        C449   1.344       .  D
C449       C2417   1.472       .  S
C450        H455   1.088       .  S
C450        C451   1.359       .  D
C451       C2557   1.472       .  S
C456        C457   1.532       .  S
C456        C462   1.528       .  S
C456        C460   1.545       .  S
C456       C1964   1.541       .  S
C457        H464   1.077       .  S
C457        C458   1.368       .  D
C458        C459   1.567       .  S
C458       C2657   1.523       .  S
C459        C463   1.535       .  S
C459        C461   1.571       .  S
C459        H465   1.109       .  S
C460        H466   1.085       .  S
C460        C461   1.381       .  D
C461        C517   1.504       .  S
C462        H467   1.089       .  S
C462        C463   1.346       .  D
C463       C2437   1.476       .  S
C468        C469   1.553       .  S
C468        C474   1.520       .  S
C468        C472   1.519       .  S
C468       C1954   1.535       .  S
C469        H476   1.083       .  S
C469        C470   1.391       .  D
C470        C471   1.574       .  S
C470        C536   1.511       .  S
C471        C475   1.538       .  S
C471        C473   1.553       .  S
C471        H477   1.110       .  S
C472        H478   1.085       .  S
C472        C473   1.357       .  D
C473       C1934   1.502       .  S
C474        H479   1.089       .  S
C474        C475   1.348       .  D
C475       C1944   1.470       .  S
C480        C481   1.533       .  S
C480        C486   1.537       .  S
C480        C484   1.547       .  S
C480       C1924   1.555       .  S
C481        H488   1.077       .  S
C481        C482   1.363       .  D
C482        C483   1.551       .  S
C482       C1914   1.504       .  S
C483        C487   1.537       .  S
C483        C485   1.564       .  S
C483        H489   1.109       .  S
C484        H490   1.085   1_556  S
C484        C485   1.383       .  D
C485        C532   1.510       .  S
C486        H491   1.085       .  S
C486        C487   1.354       .  D
C487       C1907   1.483       .  S
C492        C493   1.563       .  S
C492        C498   1.535       .  S
C492        C496   1.519       .  S
C492       C1894   1.553       .  S
C493        H500   1.084       .  S
C493        C494   1.400       .  D
C494        C495   1.572       .  S
C494        C531   1.526       .  S
C495        C499   1.528       .  S
C495        C497   1.553       .  S
C495        H501   1.109       .  S
C496        H502   1.088       .  S
C496        C497   1.348       .  D
C497       C1884   1.504       .  S
C498        H503   1.087       .  S
C498        C499   1.357       .  D
C499       C2674   1.475       .  S
C504        C505   1.530       .  S
C504        C510   1.543       .  S
C504        C508   1.551       .  S
C504       C2587   1.552       .  S
C505        H512   1.080       .  S
C505        C506   1.355       .  D
C506        C507   1.562       .  S
C506       C2544   1.497       .  S
C507        C511   1.529       .  S
C507        C509   1.559       .  S
C507        H513   1.109       .  S
C508        H514   1.085       .  S
C508        C509   1.383       .  D
C509        C534   1.511       .  S
C510        H515   1.086       .  S
C510        C511   1.361       .  D
C511       C1874   1.486       .  S
O516        C532   1.288       .  A
O516       Zn522   2.119       .  S
C517        O533   1.285       .  A
C517        O530   1.281       .  A
O518        C531   1.286       .  A
O518       Cd525   2.161       .  S
O519        C537   1.279       .  A
O519       Cd528   2.097       .  S
O520        C534   1.284       .  A
O520       Cd524   2.139       .  S
O521        C532   1.282       .  A
O521       Cd524   2.124   1_556  S
Zn522       O533   2.104   1_556  S
Zn522       O535   2.098       .  S
Zn522       O527   1.991   1_556  S
O523        C534   1.281       .  A
O523       Cd528   2.136       .  S
Cd524       O526   2.104   1_554  S
Cd524       O527   2.038       .  S
Cd525       O529   2.154       .  S
Cd525       O538   2.146   1_556  S
Cd525       O527   2.059   1_556  S
O526        C536   1.280       .  A
O527       Cd528   2.042       .  S
Cd528       O530   2.117       .  S
O529        C536   1.288       .  A
C531        O535   1.284       .  A
C537        O538   1.286       .  A
O539        C555   1.266       .  A
O539       Zn545   1.944       .  S
C540        O556   1.275       .  A
C540        O553   1.277       .  A
C540       C1867   1.480       .  S
O541        C554   1.280       .  A
O541       Cd548   2.145       .  S
O542        C560   1.275       .  A
O542       Cd551   2.066       .  S
O543        C557   1.277       .  A
O543       Cd547   2.085       .  S
O544        C555   1.282       .  A
O544       Cd547   2.105       .  S
Zn545       O556   2.003       .  S
Zn545       O558   1.959       .  S
Zn545       O550   1.879       .  S
O546        C557   1.269       .  A
O546       Cd551   2.034       .  S
Cd547       O549   2.017       .  S
Cd547       O550   1.961       .  S
Cd548       O552   2.139       .  S
Cd548       O561   2.058       .  S
Cd548       O550   1.966       .  S
O549        C559   1.269       .  A
O550       Cd551   1.961       .  S
Cd551       O553   2.054       .  S
O552        C559   1.290       .  A
C554        O558   1.262       .  A
C554       C1854   1.500       .  S
C555       C2027   1.467       .  S
C557       C1917   1.486       .  S
C559       C1844   1.474       .  S
C560        O561   1.274       .  A
C560       C1947   1.482       .  S
C562        C563   1.552       .  S
C562        C568   1.535       .  S
C562        C566   1.524       .  S
C562       C2217   1.537       .  S
C563        H570   1.084       .  S
C563        C564   1.391       .  D
C564        C565   1.571       .  S
C564        C655   1.506       .  S
C565        C569   1.517       .  S
C565        C567   1.563       .  S
C565        H571   1.110       .  S
C566        H572   1.087       .  S
C566        C567   1.347       .  D
C567       C2427   1.499       .  S
C568        H573   1.088       .  S
C568        C569   1.355       .  D
C569       C1837   1.476       .  S
C574        C575   1.548       .  S
C574        C580   1.522       .  S
C574        C578   1.521       .  S
C574       C1824   1.536       .  S
C575        H582   1.083       .  S
C575        C576   1.387       .  D
C576        C577   1.579       .  S
C576        C649   1.515       .  S
C577        C581   1.538       .  S
C577        C579   1.558       .  S
C577        H583   1.110       .  S
C578        H584   1.086       .  S
C578        C579   1.362       .  D
C579       C1814   1.508       .  S
C580        H585   1.089       .  S
C580        C581   1.349       .  D
C581       C2107   1.472       .  S
C586        C587   1.549       .  S
C586        C592   1.540       .  S
C586        C590   1.539       .  S
C586       C1804   1.551       .  S
C587        H594   1.085       .  S
C587        C588   1.383       .  D
C588        C589   1.565       .  S
C588        C654   1.516       .  S
C589        C593   1.525       .  S
C589        C591   1.554       .  S
C589        H595   1.109       .  S
C590        H596   1.078       .  S
C590        C591   1.362       .  D
C591       C2727   1.505       .  S
C592        H597   1.087       .  S
C592        C593   1.353       .  D
C593       C1864   1.475       .  S
C598        C599   1.531       .  S
C598        C604   1.541       .  S
C598        C602   1.545       .  S
C598       C2574   1.546       .  S
C599        H606   1.078       .  S
C599        C600   1.357       .  D
C600        C601   1.556       .  S
C600       C1794   1.504       .  S
C601        C605   1.532       .  S
C601        C603   1.573       .  S
C601        H607   1.110       .  S
C602        H608   1.085       .  S
C602        C603   1.381       .  D
C603        C652   1.509       .  S
C604        H609   1.088       .  S
C604        C605   1.357       .  D
C605       C2747   1.488       .  S
C610        C611   1.532       .  S
C610        C616   1.535       .  S
C610        C614   1.543       .  S
C610       C2527   1.546       .  S
C611        H618   1.085       .  S
C611        C612   1.361       .  D
C612        C613   1.562       .  S
C612       C2087   1.509       .  S
C613        C617   1.544       .  S
C613        C615   1.570       .  S
C613        H619   1.110       .  S
C614        H620   1.085       .  S
C614        C615   1.378       .  D
C615        C635   1.509       .  S
C616        H621   1.084       .  S
C616        C617   1.353       .  D
C617       C2447   1.479       .  S
C622        C623   1.517       .  S
C622        C628   1.531       .  S
C622        C626   1.563       .  S
C622       C2457   1.541       .  S
C623        H630   1.089       .  S
C623        C624   1.348       .  D
C624        C625   1.554       .  S
C624       C1857   1.487       .  S
C625        C629   1.528       .  S
C625        C627   1.558       .  S
C625        H631   1.111       .  S
C626        H632   1.083       .  S
C626        C627   1.389       .  D
C627        C650   1.508       .  S
C628        H633   1.087       .  S
C628        C629   1.362       .  D
C629       C1784   1.470       .  S
O634        C650   1.286       .  A
O634       Zn640   2.102       .  S
C635        O651   1.285       .  A
C635        O648   1.280       .  A
O636        C649   1.287       .  A
O636       Cd643   2.148       .  S
O637        C655   1.279       .  A
O637       Cd646   2.098       .  S
O638        C652   1.282       .  A
O638       Cd642   2.133       .  S
O639        C650   1.282       .  A
O639       Cd642   2.131       .  S
Zn640       O651   2.116       .  S
Zn640       O653   2.074       .  S
Zn640       O645   2.003       .  S
O641        C652   1.285       .  A
O641       Cd646   2.142       .  S
Cd642       O644   2.108       .  S
Cd642       O645   2.047       .  S
Cd643       O647   2.162       .  S
Cd643       O656   2.141       .  S
Cd643       O645   2.055       .  S
O644        C654   1.279       .  A
O645       Cd646   2.037       .  S
Cd646       O648   2.117       .  S
O647        C654   1.288       .  A
C649        O653   1.280       .  A
C655        O656   1.284       .  A
O657        C673   1.275       .  A
O657       Zn663   1.993       .  S
C658        O674   1.275       .  A
C658        O671   1.289       .  A
C658       C1807   1.499       .  S
O659        C672   1.284       .  A
O659       Cd666   2.131       .  S
O660        C678   1.265       .  A
O660       Cd669   1.996       .  S
O661        C675   1.265       .  A
O661       Cd665   2.019       .  S
O662        C673   1.277       .  A
O662       Cd665   2.058       .  S
Zn663       O674   1.995       .  S
Zn663       O676   1.942       .  S
Zn663       O668   1.849       .  S
O664        C675   1.279       .  A
O664       Cd669   2.113       .  S
Cd665       O667   2.087       .  S
Cd665       O668   1.953       .  S
Cd666       O670   2.045       .  S
Cd666       O679   2.129       .  S
Cd666       O668   1.959       .  S
O667        C677   1.279       .  A
O668       Cd669   1.951       .  S
Cd669       O671   2.126       .  S
O670        C677   1.273       .  A
C672        O676   1.266       .  A
C672       C1887   1.476       .  S
C673       C1904   1.454       .  S
C675       C1767   1.496       .  S
C677       C1774   1.486       .  S
C678        O679   1.289       .  A
C678       C1757   1.490       .  S
O680        C696   1.273       .  A
O680       Zn686   1.988   1_565  S
C681        O697   1.264       .  A
C681        O694   1.286       .  A
C681       C1707   1.474       .  S
O682        C695   1.274       .  A
O682       Cd689   2.138       .  S
O683        C701   1.270       .  A
O683       Cd692   2.028   1_545  S
O684        C698   1.274       .  A
O684       Cd688   2.054   1_565  S
O685        C696   1.280       .  A
O685       Cd688   2.074   1_565  S
Zn686       O697   1.923   1_545  S
Zn686       O699   1.944       .  S
Zn686       O691   1.887       .  S
O687        C698   1.283       .  A
O687       Cd692   2.104       .  S
Cd688       O690   2.076       .  S
Cd688       O691   1.965       .  S
Cd689       O693   2.044       .  S
Cd689       O702   2.140       .  S
Cd689       O691   1.967       .  S
O690        C700   1.277       .  A
O691       Cd692   1.948   1_545  S
Cd692       O694   2.130       .  S
O693        C700   1.273       .  A
C695        O699   1.258       .  A
C695       C1717   1.502       .  S
C696       C1737   1.471       .  S
C698       C1727   1.495       .  S
C700       C1747   1.475       .  S
C701        O702   1.292       .  A
C701       C2164   1.499       .  S
O703        C719   1.270       .  A
O703       Zn709   1.960       .  S
C704        O720   1.278       .  A
C704        O717   1.277       .  A
C704       C1687   1.468       .  S
O705        C718   1.289       .  A
O705       Cd712   2.162       .  S
O706        C724   1.277   1_556  A
O706       Cd715   2.066       .  S
O707        C721   1.283       .  A
O707       Cd711   2.126       .  S
O708        C719   1.289       .  A
O708       Cd711   2.153       .  S
Zn709       O720   2.001       .  S
Zn709       O722   1.915       .  S
Zn709       O714   1.849       .  S
O710        C721   1.267       .  A
O710       Cd715   2.022       .  S
Cd711       O713   2.005       .  S
Cd711       O714   1.952       .  S
Cd712       O716   2.152       .  S
Cd712       O725   2.080       .  S
Cd712       O714   1.961   1_554  S
O713        C723   1.266   1_556  A
O714       Cd715   1.933       .  S
Cd715       O717   2.062       .  S
O716        C723   1.291       .  A
C718        O722   1.261   1_554  A
C718       C1664   1.498       .  S
C719       C1927   1.504       .  S
C721       C1674   1.501       .  S
C723       C1657   1.485       .  S
C724        O725   1.280       .  A
C724       C1694   1.490       .  S
C726        C727   1.548       .  S
C726        C732   1.525       .  S
C726        C730   1.530       .  S
C726       C1644   1.537       .  S
C727        H734   1.082   1_565  S
C727        C728   1.381       .  D
C728        C729   1.571       .  S
C728        C814   1.503       .  S
C729        C733   1.540       .  S
C729        C731   1.559       .  S
C729        H735   1.110       .  S
C730        H736   1.085       .  S
C730        C731   1.366       .  D
C731       C1764   1.510       .  S
C732        H737   1.089       .  S
C732        C733   1.347       .  D
C733       C1684   1.476       .  S
C738        C739   1.533       .  S
C738        C744   1.530       .  S
C738        C742   1.546       .  S
C738       C2647   1.551       .  S
C739        H746   1.083       .  S
C739        C740   1.365       .  D
C740        C741   1.559       .  S
C740       C1634   1.510       .  S
C741        C745   1.539       .  S
C741        C743   1.572       .  S
C741        H747   1.110       .  S
C742        H748   1.085       .  S
C742        C743   1.382       .  D
C743        C813   1.519       .  S
C744        H749   1.086       .  S
C744        C745   1.352       .  D
C745       C1777   1.471       .  S
C750        C751   1.524       .  S
C750        C756   1.531       .  S
C750        C754   1.564       .  S
C750       C1624   1.537       .  S
C751        H758   1.088       .  S
C751        C752   1.349       .  D
C752        C753   1.550       .  S
C752       C1667   1.485       .  S
C753        C757   1.524       .  S
C753        C755   1.564       .  S
C753        H759   1.110       .  S
C754        H760   1.082       .  S
C754        C755   1.388       .  D
C755        C818   1.514       .  S
C756        H761   1.088       .  S
C756        C757   1.357       .  D
C757       C1734   1.469       .  S
C762        C763   1.547       .  S
C762        C768   1.534       .  S
C762        C766   1.533       .  S
C762       C1614   1.555       .  S
C763        H770   1.085       .  S
C763        C764   1.382       .  D
C764        C765   1.562       .  S
C764        C816   1.505       .  S
C765        C769   1.532       .  S
C765        C767   1.555       .  S
C765        H771   1.110       .  S
C766        H772   1.081       .  S
C766        C767   1.366       .  D
C767       C1714   1.508       .  S
C768        H773   1.087       .  S
C768        C769   1.353       .  D
C769       C2567   1.464       .  S
C774        C775   1.553       .  S
C774        C780   1.537       .  S
C774        C778   1.519       .  S
C774       C1607   1.534       .  S
C775        H782   1.083       .  S
C775        C776   1.384       .  D
C776        C777   1.557       .  S
C776        C799   1.494       .  S
C777        C781   1.526       .  S
C777        C779   1.556       .  S
C777        H783   1.110       .  S
C778        H784   1.090       .  S
C778        C779   1.347       .  D
C779       C1597   1.488       .  S
C780        H785   1.087       .  S
C780        C781   1.363       .  D
C781       C1584   1.475       .  S
C786        C787   1.535       .  S
C786        C792   1.531       .  S
C786        C790   1.541       .  S
C786       C2284   1.548       .  S
C787        H794   1.084       .  S
C787        C788   1.361       .  D
C788        C789   1.551       .  S
C788       C2537   1.502       .  S
C789        C793   1.544       .  S
C789        C791   1.577       .  S
C789        H795   1.110       .  S
C790        H796   1.085       .  S
C790        C791   1.380       .  D
C791        C819   1.517       .  S
C792        H797   1.086       .  S
C792        C793   1.355       .  D
C793       C1574   1.476       .  S
O798        C814   1.282       .  A
O798       Zn804   2.094   1_565  S
C799        O815   1.283       .  A
C799        O812   1.278       .  A
O800        C813   1.289       .  A
O800       Cd807   2.165   1_556  S
O801        C819   1.277       .  A
O801       Cd810   2.101       .  S
O802        C816   1.283       .  A
O802       Cd806   2.138   1_544  S
O803        C814   1.280       .  A
O803       Cd806   2.117       .  S
Zn804       O815   2.078       .  S
Zn804       O817   2.068   1_545  S
Zn804       O809   1.995       .  S
O805        C816   1.281       .  A
O805       Cd810   2.122       .  S
Cd806       O808   2.083   1_556  S
Cd806       O809   2.035   1_565  S
Cd807       O811   2.177       .  S
Cd807       O820   2.173   1_565  S
Cd807       O809   2.055   1_564  S
O808        C818   1.277       .  A
O809       Cd810   2.047   1_556  S
Cd810       O812   2.107   1_554  S
O811        C818   1.290       .  A
C813        O817   1.279       .  A
C819        O820   1.292       .  A
O821        C837   1.274       .  A
O821       Zn827   2.000       .  S
C822        O838   1.265       .  A
C822        O835   1.286       .  A
C822       C2207   1.492       .  S
O823        C836   1.274       .  A
O823       Cd830   2.134       .  S
O824        C842   1.268   1_655  A
O824       Cd833   2.016       .  S
O825        C839   1.269       .  A
O825       Cd829   2.027       .  S
O826        C837   1.277       .  A
O826       Cd829   2.059       .  S
Zn827       O838   1.933       .  S
Zn827       O840   1.948   1_655  S
Zn827       O832   1.884       .  S
O828        C839   1.280       .  A
O828       Cd833   2.105       .  S
Cd829       O831   2.077   1_655  S
Cd829       O832   1.961       .  S
Cd830       O834   2.042       .  S
Cd830       O843   2.129       .  S
Cd830       O832   1.968   1_455  S
O831        C841   1.276       .  A
O832       Cd833   1.969       .  S
Cd833       O835   2.126       .  S
O834        C841   1.272       .  A
C836        O840   1.260       .  A
C836       C1534   1.502       .  S
C837       C1557   1.480       .  S
C839       C1547   1.495       .  S
C841       C1567   1.480       .  S
C842        O843   1.291       .  A
C842       C1987   1.492       .  S
O844        C860   1.275       .  A
O844       Zn850   1.984       .  S
C845        O861   1.266       .  A
C845        O858   1.288       .  A
C845       C1504   1.481       .  S
O846        C859   1.285       .  A
O846       Cd853   2.145       .  S
O847        C865   1.268   1_556  A
O847       Cd856   2.011       .  S
O848        C862   1.271       .  A
O848       Cd852   2.041       .  S
O849        C860   1.276       .  A
O849       Cd852   2.057       .  S
Zn850       O861   1.939       .  S
Zn850       O863   1.907   1_556  S
Zn850       O855   1.841       .  S
O851        C862   1.282       .  A
O851       Cd856   2.108       .  S
Cd852       O854   2.060   1_556  S
Cd852       O855   1.941       .  S
Cd853       O857   2.064       .  S
Cd853       O866   2.133       .  S
Cd853       O855   1.949   1_554  S
O854        C864   1.275       .  A
O855       Cd856   1.939       .  S
Cd856       O858   2.133       .  S
O857        C864   1.276       .  A
C859        O863   1.261       .  A
C859       C1517   1.478       .  S
C860       C1524   1.457       .  S
C862       C1594   1.481       .  S
C864       C1577   1.478       .  S
C865        O866   1.291       .  A
C865       C1977   1.486       .  S
O867        C883   1.278       .  A
O867       Zn873   1.996       .  S
C868        O884   1.270       .  A
C868        O881   1.287       .  A
C868       C1477   1.496       .  S
O869        C882   1.285       .  A
O869       Cd876   2.140       .  S
O870        C888   1.266       .  A
O870       Cd879   2.012       .  S
O871        C885   1.268       .  A
O871       Cd875   2.026       .  S
O872        C883   1.275       .  A
O872       Cd875   2.051       .  S
Zn873       O884   1.956       .  S
Zn873       O886   1.922       .  S
Zn873       O878   1.844       .  S
O874        C885   1.281       .  A
O874       Cd879   2.102       .  S
Cd875       O877   2.063       .  S
Cd875       O878   1.931       .  S
Cd876       O880   2.079       .  S
Cd876       O889   2.140       .  S
Cd876       O878   1.951   1_565  S
O877        C887   1.277   1_545  A
O878       Cd879   1.946       .  S
Cd879       O881   2.130       .  S
O880        C887   1.280       .  A
C882        O886   1.262   1_565  A
C882       C2127   1.494       .  S
C883       C2147   1.465       .  S
C885       C1484   1.478       .  S
C887       C1494   1.485       .  S
C888        O889   1.289   1_545  A
C888       C1647   1.490   1_545  S
C890        C891   1.557       .  S
C890        C896   1.535       .  S
C890        C894   1.515       .  S
C890       C1464   1.537       .  S
C891        H898   1.084   1_556  S
C891        C892   1.387       .  D
C892        C893   1.558       .  S
C892        C963   1.502       .  S
C893        C897   1.533       .  S
C893        C895   1.555       .  S
C893        H899   1.110       .  S
C894        H900   1.090       .  S
C894        C895   1.347       .  D
C895       C1487   1.484       .  S
C896        H901   1.086       .  S
C896        C897   1.363       .  D
C897       C1454   1.482       .  S
C902        C903   1.555       .  S
C902        C908   1.522       .  S
C902        C906   1.520       .  S
C902       C1704   1.536       .  S
C903        H910   1.082       .  S
C903        C904   1.386       .  D
C904        C905   1.571       .  S
C904        C980   1.507       .  S
C905        C909   1.544       .  S
C905        C907   1.553       .  S
C905        H911   1.110       .  S
C906        H912   1.088       .  S
C906        C907   1.358       .  D
C907       C1537   1.495       .  S
C908        H913   1.089       .  S
C908        C909   1.351       .  D
C909       C1697   1.476       .  S
C914        C915   1.554       .  S
C914        C920   1.519       .  S
C914        C918   1.518       .  S
C914       C2344   1.530       .  S
C915        H922   1.082       .  S
C915        C916   1.383       .  D
C916        C917   1.569       .  S
C916        C978   1.504       .  S
C917        C921   1.540       .  S
C917        C919   1.559       .  S
C917        H923   1.110       .  S
C918        H924   1.086       .  S
C918        C919   1.357       .  D
C919       C1514   1.503       .  S
C920        H925   1.089       .  S
C920        C921   1.350       .  D
C921       C2327   1.467       .  S
C926        C927   1.530       .  S
C926        C932   1.545       .  S
C926        C930   1.547       .  S
C926       C2637   1.550       .  S
C927        H934   1.084       .  S
C927        C928   1.354       .  D
C928        C929   1.565       .  S
C928       C2304   1.502       .  S
C929        C933   1.528       .  S
C929        C931   1.567       .  S
C929        H935   1.108       .  S
C930        H936   1.085   1_554  S
C930        C931   1.382       .  D
C931        C982   1.516       .  S
C932        H937   1.085       .  S
C932        C933   1.361       .  D
C933       C1554   1.486       .  S
C938        C939   1.522       .  S
C938        C944   1.524       .  S
C938        C942   1.551       .  S
C938       C2044   1.530       .  S
C939        H946   1.086       .  S
C939        C940   1.356       .  D
C940        C941   1.562       .  S
C940       C1677   1.508       .  S
C941        C945   1.541       .  S
C941        C943   1.574       .  S
C941        H947   1.110       .  S
C942        H948   1.083       .  S
C942        C943   1.386       .  D
C943        C983   1.511       .  S
C944        H949   1.089       .  S
C944        C945   1.348       .  D
C945       C1497   1.475       .  S
C950        C951   1.530       .  S
C950        C956   1.532       .  S
C950        C954   1.540       .  S
C950       C1444   1.543       .  S
C951        H958   1.076       .  S
C951        C952   1.370       .  D
C952        C953   1.552       .  S
C952       C1434   1.506       .  S
C953        C957   1.532       .  S
C953        C955   1.568       .  S
C953        H959   1.110       .  S
C954        H960   1.085       .  S
C954        C955   1.379       .  D
C955        C977   1.509       .  S
C956        H961   1.088       .  S
C956        C957   1.350       .  D
C957       C1527   1.464       .  S
O962        C978   1.282       .  A
O962       Zn968   2.093   1_554  S
C963        O979   1.283       .  A
C963        O976   1.281       .  A
O964        C977   1.284       .  A
O964       Cd971   2.132   1_545  S
O965        C983   1.278       .  A
O965       Cd974   2.100   1_565  S
O966        C980   1.285       .  A
O966       Cd970   2.148   1_465  S
O967        C978   1.283       .  A
O967       Cd970   2.125       .  S
Zn968       O979   2.084   1_655  S
Zn968       O981   2.068       .  S
Zn968       O973   1.997   1_656  S
O969        C980   1.281       .  A
O969       Cd974   2.120   1_564  S
Cd970       O972   2.104   1_545  S
Cd970       O973   2.040   1_655  S
Cd971       O975   2.163   1_556  S
Cd971       O984   2.155   1_655  S
Cd971       O973   2.048   1_666  S
O972        C982   1.279       .  A
O973       Cd974   2.043   1_554  S
Cd974       O976   2.128       .  S
O975        C982   1.289       .  A
C977        O981   1.279       .  A
C983        O984   1.288       .  A
O985       C1001   1.276       .  A
O985       Zn991   1.988       .  S
C986       O1002   1.268       .  A
C986        O999   1.287       .  A
C986       C1617   1.499       .  S
O987       C1000   1.283       .  A
O987       Cd994   2.137       .  S
O988       C1006   1.269   1_554  A
O988       Cd997   2.018       .  S
O989       C1003   1.265       .  A
O989       Cd993   2.014       .  S
O990       C1001   1.275       .  A
O990       Cd993   2.065       .  S
Zn991      O1002   1.969       .  S
Zn991      O1004   1.885   1_554  S
Zn991       O996   1.859       .  S
O992       C1003   1.280       .  A
O992       Cd997   2.115       .  S
Cd993       O995   2.085       .  S
Cd993       O996   1.970       .  S
Cd994       O998   2.059       .  S
Cd994      O1007   2.131       .  S
Cd994       O996   1.967   1_556  S
O995       C1005   1.278   1_554  A
O996       Cd997   1.983       .  S
Cd997       O999   2.137       .  S
O998       C1005   1.275       .  A
C1000      O1004   1.258       .  A
C1000      C1937   1.465       .  S
C1001      C1877   1.476       .  S
C1003      C1414   1.494       .  S
C1005      C1424   1.491       .  S
C1006      O1007   1.289       .  A
C1006      C1467   1.484       .  S
O1008      C1024   1.275       .  A
O1008     Zn1014   2.010       .  S
C1009      O1025   1.265       .  A
C1009      O1022   1.286       .  A
C1009      C1827   1.480       .  S
O1010      C1023   1.276       .  A
O1010     Cd1017   2.157       .  S
O1011      C1029   1.270       .  A
O1011     Cd1020   2.036       .  S
O1012      C1026   1.271       .  A
O1012     Cd1016   2.036       .  S
O1013      C1024   1.278       .  A
O1013     Cd1016   2.060       .  S
Zn1014     O1025   1.936       .  S
Zn1014     O1027   1.943       .  S
Zn1014     O1019   1.904       .  S
O1015      C1026   1.281       .  A
O1015     Cd1020   2.098       .  S
Cd1016     O1018   2.080       .  S
Cd1016     O1019   1.975       .  S
Cd1017     O1021   2.045       .  S
Cd1017     O1030   2.157       .  S
Cd1017     O1019   1.974       .  S
O1018      C1028   1.275       .  A
O1019     Cd1020   1.964       .  S
Cd1020     O1022   2.123       .  S
O1021      C1028   1.271       .  A
C1023      O1027   1.259       .  A
C1023      C2017   1.509       .  S
C1024      C1997   1.477       .  S
C1026      C1397   1.492       .  S
C1028      C1404   1.481       .  S
C1029      O1030   1.295       .  A
C1029      C1897   1.502       .  S
O1031      C1047   1.262       .  A
O1031     Zn1037   1.916   1_455  S
C1032      O1048   1.274       .  A
C1032      O1045   1.277       .  A
C1032      C1457   1.477       .  S
O1033      C1046   1.273       .  A
O1033     Cd1040   2.144       .  S
O1034      C1052   1.276       .  A
O1034     Cd1043   2.085   1_655  S
O1035      C1049   1.285       .  A
O1035     Cd1039   2.126       .  S
O1036      C1047   1.288       .  A
O1036     Cd1039   2.156       .  S
Zn1037     O1048   2.006   1_655  S
Zn1037     O1050   1.943       .  S
Zn1037     O1042   1.886   1_655  S
O1038      C1049   1.269       .  A
O1038     Cd1043   2.025       .  S
Cd1039     O1041   2.021       .  S
Cd1039     O1042   1.964       .  S
Cd1040     O1044   2.136       .  S
Cd1040     O1053   2.034       .  S
Cd1040     O1042   1.981   1_655  S
O1041      C1051   1.269   1_455  A
O1042     Cd1043   1.968       .  S
Cd1043     O1045   2.062       .  S
O1044      C1051   1.291       .  A
C1046      O1050   1.255       .  A
C1046      C1437   1.501       .  S
C1047      C2157   1.499       .  S
C1049      C1374   1.501       .  S
C1051      C2004   1.493       .  S
C1052      O1053   1.271       .  A
C1052      C1387   1.482       .  S
C1054      C1055   1.555       .  S
C1054      C1060   1.527       .  S
C1054      C1058   1.527       .  S
C1054      C1507   1.537       .  S
C1055      H1062   1.083       .  S
C1055      C1056   1.387       .  D
C1056      C1057   1.568       .  S
C1056      C1147   1.506       .  S
C1057      C1061   1.532       .  S
C1057      C1059   1.555       .  S
C1057      H1063   1.110       .  S
C1058      H1064   1.085       .  S
C1058      C1059   1.363       .  D
C1059      C1394   1.507       .  S
C1060      H1065   1.089       .  S
C1060      C1061   1.347       .  D
C1061      C1384   1.471       .  S
C1066      C1067   1.528       .  S
C1066      C1072   1.536       .  S
C1066      C1070   1.549       .  S
C1066      C1847   1.549       .  S
C1067      H1074   1.080       .  S
C1067      C1068   1.362       .  D
C1068      C1069   1.561       .  S
C1068      C1377   1.508       .  S
C1069      C1073   1.540       .  S
C1069      C1071   1.561       .  S
C1069      H1075   1.110       .  S
C1070      H1076   1.085       .  S
C1070      C1071   1.380       .  D
C1071      C1144   1.508       .  S
C1072      H1077   1.087       .  S
C1072      C1073   1.355       .  D
C1073      C1427   1.473       .  S
C1078      C1079   1.529       .  S
C1078      C1084   1.534       .  S
C1078      C1082   1.544       .  S
C1078      C2037   1.545       .  S
C1079      H1086   1.081       .  S
C1079      C1080   1.363       .  D
C1080      C1081   1.552       .  S
C1080      C2664   1.498       .  S
C1081      C1085   1.540       .  S
C1081      C1083   1.563       .  S
C1081      H1087   1.110       .  S
C1082      H1088   1.085       .  S
C1082      C1083   1.379       .  D
C1083      C1127   1.500       .  S
C1084      H1089   1.087       .  S
C1084      C1085   1.352       .  D
C1085      C1407   1.472       .  S
C1090      C1091   1.544       .  S
C1090      C1096   1.535       .  S
C1090      C1094   1.538       .  S
C1090      C2337   1.549       .  S
C1091      H1098   1.085   1_455  S
C1091      C1092   1.381       .  D
C1092      C1093   1.566       .  S
C1092      C1146   1.513       .  S
C1093      C1097   1.536       .  S
C1093      C1095   1.556       .  S
C1093      H1099   1.109       .  S
C1094      H1100   1.077       .  S
C1094      C1095   1.369       .  D
C1095      C1417   1.513       .  S
C1096      H1101   1.088       .  S
C1096      C1097   1.350       .  D
C1097      C2627   1.472       .  S
C1102      C1103   1.539       .  S
C1102      C1108   1.533       .  S
C1102      C1106   1.538       .  S
C1102      C2397   1.544       .  S
C1103      H1110   1.085       .  S
C1103      C1104   1.377       .  D
C1104      C1105   1.571       .  S
C1104      C1141   1.512       .  S
C1105      C1109   1.538       .  S
C1105      C1107   1.554       .  S
C1105      H1111   1.109       .  S
C1106      H1112   1.074       .  S
C1106      C1107   1.369       .  D
C1107      C1544   1.514       .  S
C1108      H1113   1.088       .  S
C1108      C1109   1.350       .  D
C1109      C2687   1.473       .  S
C1114      C1115   1.519       .  S
C1114      C1120   1.523       .  S
C1114      C1118   1.556       .  S
C1114      C1654   1.535       .  S
C1115      H1122   1.088       .  S
C1115      C1116   1.357       .  D
C1116      C1117   1.548       .  S
C1116      C2597   1.488       .  S
C1117      C1121   1.541       .  S
C1117      C1119   1.562       .  S
C1117      H1123   1.110       .  S
C1118      H1124   1.082       .  S
C1118      C1119   1.385       .  D
C1119      C1142   1.499       .  S
C1120      H1125   1.088       .  S
C1120      C1121   1.351       .  D
C1121      C1564   1.470       .  S
O1126      C1142   1.280       .  A
O1126     Zn1132   2.065   1_455  S
C1127      O1143   1.281       .  A
C1127      O1140   1.280       .  A
O1128      C1141   1.287       .  A
O1128     Cd1135   2.153       .  S
O1129      C1147   1.277       .  A
O1129     Cd1138   2.082       .  S
O1130      C1144   1.283       .  A
O1130     Cd1134   2.136   1_556  S
O1131      C1142   1.283       .  A
O1131     Cd1134   2.135       .  S
Zn1132     O1143   2.084   1_554  S
Zn1132     O1145   2.054       .  S
Zn1132     O1137   1.994   1_654  S
O1133      C1144   1.282       .  A
O1133     Cd1138   2.132   1_455  S
Cd1134     O1136   2.111       .  S
Cd1134     O1137   2.041   1_554  S
Cd1135     O1139   2.151   1_655  S
Cd1135     O1148   2.157   1_554  S
Cd1135     O1137   2.053   1_654  S
O1136      C1146   1.280       .  A
O1137     Cd1138   2.035   1_455  S
Cd1138     O1140   2.117       .  S
O1139      C1146   1.287       .  A
C1141      O1145   1.277       .  A
C1147      O1148   1.287       .  A
O1149      C1165   1.272       .  A
O1149     Zn1155   1.976       .  S
C1150      O1166   1.276       .  A
C1150      O1163   1.275       .  A
C1150      C1834   1.478       .  S
O1151      C1164   1.285       .  A
O1151     Cd1158   2.143       .  S
O1152      C1170   1.276       .  A
O1152     Cd1161   2.066       .  S
O1153      C1167   1.278       .  A
O1153     Cd1157   2.101       .  S
O1154      C1165   1.288       .  A
O1154     Cd1157   2.112       .  S
Zn1155     O1166   1.994       .  S
Zn1155     O1168   1.931       .  S
Zn1155     O1160   1.854       .  S
O1156      C1167   1.266       .  A
O1156     Cd1161   2.027       .  S
Cd1157     O1159   2.001       .  S
Cd1157     O1160   1.939       .  S
Cd1158     O1162   2.141       .  S
Cd1158     O1171   2.057       .  S
Cd1158     O1160   1.959       .  S
O1159      C1169   1.265       .  A
O1160     Cd1161   1.944       .  S
Cd1161     O1163   2.043       .  S
O1162      C1169   1.291       .  A
C1164      O1168   1.264       .  A
C1164      C1797   1.477       .  S
C1165      C1967   1.495       .  S
C1167      C1357   1.477       .  S
C1169      C1627   1.494       .  S
C1170      O1171   1.276       .  A
C1170      C1367   1.478       .  S
O1172      C1188   1.273       .  A
O1172     Zn1178   1.986       .  S
C1173      O1189   1.263       .  A
C1173      O1186   1.287       .  A
C1173      C1957   1.477       .  S
O1174      C1187   1.273       .  A
O1174     Cd1181   2.139       .  S
O1175      C1193   1.271       .  A
O1175     Cd1184   2.029       .  S
O1176      C1190   1.270       .  A
O1176     Cd1180   2.038       .  S
O1177      C1188   1.278       .  A
O1177     Cd1180   2.060       .  S
Zn1178     O1189   1.927       .  S
Zn1178     O1191   1.946       .  S
Zn1178     O1183   1.890       .  S
O1179      C1190   1.282       .  A
O1179     Cd1184   2.110       .  S
Cd1180     O1182   2.083       .  S
Cd1180     O1183   1.971       .  S
Cd1181     O1185   2.025       .  S
Cd1181     O1194   2.120       .  S
Cd1181     O1183   1.969       .  S
O1182      C1192   1.276       .  A
O1183     Cd1184   1.953       .  S
Cd1184     O1186   2.131       .  S
O1185      C1192   1.269       .  A
C1187      O1191   1.258       .  A
C1187      C1817   1.504       .  S
C1188      C1787   1.469       .  S
C1190      C1334   1.493       .  S
C1192      C1347   1.474       .  S
C1193      O1194   1.290       .  A
C1193      C1604   1.490       .  S
O1195      C1211   1.264       .  A
O1195     Zn1201   1.925       .  S
C1196      O1212   1.273       .  A
C1196      O1209   1.279       .  A
C1196      C1587   1.475       .  S
O1197      C1210   1.276       .  A
O1197     Cd1204   2.148       .  S
O1198      C1216   1.276       .  A
O1198     Cd1207   2.077   1_565  S
O1199      C1213   1.281       .  A
O1199     Cd1203   2.104       .  S
O1200      C1211   1.286       .  A
O1200     Cd1203   2.136       .  S
Zn1201     O1212   1.988       .  S
Zn1201     O1214   1.948   1_545  S
Zn1201     O1206   1.886       .  S
O1202      C1213   1.271       .  A
O1202     Cd1207   2.033       .  S
Cd1203     O1205   2.022       .  S
Cd1203     O1206   1.965       .  S
Cd1204     O1208   2.146       .  S
Cd1204     O1217   2.045       .  S
Cd1204     O1206   1.963   1_565  S
O1205      C1215   1.269   1_545  A
O1206     Cd1207   1.963       .  S
Cd1207     O1209   2.070       .  S
O1208      C1215   1.292       .  A
C1210      O1214   1.260       .  A
C1210      C1637   1.508       .  S
C1211      C1447   1.492       .  S
C1213      C1314   1.496       .  S
C1215      C2187   1.477       .  S
C1216      O1217   1.273       .  A
C1216      C1324   1.483       .  S
C1218      C1219   1.544       .  S
C1218      C1224   1.537       .  S
C1218      C1222   1.529       .  S
C1218      C1474   1.546       .  S
C1219      H1226   1.085       .  S
C1219      C1220   1.379       .  D
C1220      C1221   1.571       .  S
C1220      C1308   1.511       .  S
C1221      C1225   1.542       .  S
C1221      C1223   1.561       .  S
C1221      H1227   1.110       .  S
C1222      H1228   1.077       .  S
C1222      C1223   1.363       .  D
C1223      C1337   1.507       .  S
C1224      H1229   1.088       .  S
C1224      C1225   1.353       .  D
C1225      C2497   1.483       .  S
C1230      C1231   1.551       .  S
C1230      C1236   1.523       .  S
C1230      C1234   1.521       .  S
C1230      C1754   1.534       .  S
C1231      H1238   1.081       .  S
C1231      C1232   1.380       .  D
C1232      C1233   1.573       .  S
C1232      C1306   1.508       .  S
C1233      C1237   1.541       .  S
C1233      C1235   1.564       .  S
C1233      H1239   1.110       .  S
C1234      H1240   1.086       .  S
C1234      C1235   1.363       .  D
C1235      C2237   1.512       .  S
C1236      H1241   1.088       .  S
C1236      C1237   1.350       .  D
C1237      C1327   1.470       .  S
C1242      C1243   1.528       .  S
C1242      C1248   1.523       .  S
C1242      C1246   1.553       .  S
C1242      C2074   1.537       .  S
C1243      H1250   1.085       .  S
C1243      C1244   1.362       .  D
C1244      C1245   1.556       .  S
C1244      C1317   1.508       .  S
C1245      C1249   1.533       .  S
C1245      C1247   1.567       .  S
C1245      H1251   1.110       .  S
C1246      H1252   1.083       .  S
C1246      C1247   1.388       .  D
C1247      C1310   1.506       .  S
C1248      H1253   1.089       .  S
C1248      C1249   1.347       .  D
C1249      C1344   1.468       .  S
C1254      C1255   1.555       .  S
C1254      C1260   1.524       .  S
C1254      C1258   1.530       .  S
C1254      C2697   1.544       .  S
C1255      H1262   1.084       .  S
C1255      C1256   1.387       .  D
C1256      C1257   1.568       .  S
C1256      C1291   1.507       .  S
C1257      C1261   1.535       .  S
C1257      C1259   1.556       .  S
C1257      H1263   1.110       .  S
C1258      H1264   1.084       .  S
C1258      C1259   1.364       .  D
C1259      C1724   1.509       .  S
C1260      H1265   1.089       .  S
C1260      C1261   1.349       .  D
C1261      C1364   1.472       .  S
C1266      C1267   1.520       .  S
C1266      C1272   1.537       .  S
C1266      C1270   1.556       .  S
C1266      C2277   1.538       .  S
C1267      H1274   1.090       .  S
C1267      C1268   1.346       .  D
C1268      C1269   1.555       .  S
C1268      C1354   1.488       .  S
C1269      C1273   1.522       .  S
C1269      C1271   1.564       .  S
C1269      H1275   1.110       .  S
C1270      H1276   1.083   1_565  S
C1270      C1271   1.392       .  D
C1271      C1305   1.503       .  S
C1272      H1277   1.087       .  S
C1272      C1273   1.360       .  D
C1273      C2267   1.478       .  S
C1278      C1279   1.524       .  S
C1278      C1284   1.520       .  S
C1278      C1282   1.550       .  S
C1278      C2517   1.533       .  S
C1279      H1286   1.085       .  S
C1279      C1280   1.360       .  D
C1280      C1281   1.552       .  S
C1280      C2477   1.499       .  S
C1281      C1285   1.542       .  S
C1281      C1283   1.570       .  S
C1281      H1287   1.110       .  S
C1282      H1288   1.084       .  S
C1282      C1283   1.391       .  D
C1283      C1311   1.505       .  S
C1284      H1289   1.090       .  S
C1284      C1285   1.344       .  D
C1285      C1744   1.475       .  S
O1290      C1306   1.283       .  A
O1290     Zn1296   2.097       .  S
C1291      O1307   1.282       .  A
C1291      O1304   1.284       .  A
O1292      C1305   1.282   1_545  A
O1292     Cd1299   2.134       .  S
O1293      C1311   1.279       .  A
O1293     Cd1302   2.105       .  S
O1294      C1308   1.285       .  A
O1294     Cd1298   2.141       .  S
O1295      C1306   1.283       .  A
O1295     Cd1298   2.131   1_565  S
Zn1296     O1307   2.085       .  S
Zn1296     O1309   2.037       .  S
Zn1296     O1301   1.986   1_565  S
O1297      C1308   1.284       .  A
O1297     Cd1302   2.141       .  S
Cd1298     O1300   2.095       .  S
Cd1298     O1301   2.037       .  S
Cd1299     O1303   2.143       .  S
Cd1299     O1312   2.131       .  S
Cd1299     O1301   2.058       .  S
O1300      C1310   1.278       .  A
O1301     Cd1302   2.039       .  S
Cd1302     O1304   2.140   1_545  S
O1303      C1310   1.285       .  A
C1305      O1309   1.277       .  A
C1311      O1312   1.283       .  A
C1313      C1314   1.412       .  A
C1313      C1318   1.406       .  A
C1313      F1320   1.358       .  S
C1314      C1315   1.410       .  A
C1315      C1316   1.400       .  A
C1315      F1322   1.358       .  S
C1316      C1317   1.412       .  A
C1316      F1321   1.358       .  S
C1317      C1318   1.409       .  A
C1318      F1319   1.355       .  S
C1323      C1324   1.408       .  A
C1323      C1328   1.389       .  A
C1323      F1330   1.358       .  S
C1324      C1325   1.411       .  A
C1325      C1326   1.402       .  A
C1325      F1332   1.357   1_565  S
C1326      C1327   1.403       .  A
C1326      F1331   1.358       .  S
C1327      C1328   1.403       .  A
C1328      F1329   1.356       .  S
C1333      C1334   1.408       .  A
C1333      C1338   1.399       .  A
C1333      F1340   1.358       .  S
C1334      C1335   1.412       .  A
C1335      C1336   1.410       .  A
C1335      F1342   1.357       .  S
C1336      C1337   1.409       .  A
C1336      F1341   1.354       .  S
C1337      C1338   1.412       .  A
C1338      F1339   1.359       .  S
C1343      C1344   1.403       .  A
C1343      C1348   1.385       .  A
C1343      F1350   1.358       .  S
C1344      C1345   1.403       .  A
C1345      C1346   1.403       .  A
C1345      F1352   1.358       .  S
C1346      C1347   1.409       .  A
C1346      F1351   1.356       .  S
C1347      C1348   1.406       .  A
C1348      F1349   1.359       .  S
C1353      C1354   1.414       .  A
C1353      C1358   1.397       .  A
C1353      F1360   1.353       .  S
C1354      C1355   1.406       .  A
C1355      C1356   1.404       .  A
C1355      F1362   1.358       .  S
C1356      C1357   1.410       .  A
C1356      F1361   1.358       .  S
C1357      C1358   1.400       .  A
C1358      F1359   1.358       .  S
C1363      C1364   1.400       .  A
C1363      C1368   1.402       .  A
C1363      F1370   1.358       .  S
C1364      C1365   1.406       .  A
C1365      C1366   1.388       .  A
C1365      F1372   1.359       .  S
C1366      C1367   1.406       .  A
C1366      F1371   1.358       .  S
C1367      C1368   1.412       .  A
C1368      F1369   1.357       .  S
C1373      C1374   1.409       .  A
C1373      C1378   1.401       .  A
C1373      F1380   1.358       .  S
C1374      C1375   1.418       .  A
C1375      C1376   1.407       .  A
C1375      F1382   1.357       .  S
C1376      C1377   1.404       .  A
C1376      F1381   1.355       .  S
C1377      C1378   1.415       .  A
C1378      F1379   1.359       .  S
C1383      C1384   1.402       .  A
C1383      C1388   1.388       .  A
C1383      F1390   1.358       .  S
C1384      C1385   1.402       .  A
C1385      C1386   1.403       .  A
C1385      F1392   1.358       .  S
C1386      C1387   1.412       .  A
C1386      F1391   1.356       .  S
C1387      C1388   1.410       .  A
C1388      F1389   1.358       .  S
C1393      C1394   1.412       .  A
C1393      C1398   1.398       .  A
C1393      F1400   1.359       .  S
C1394      C1395   1.410       .  A
C1395      C1396   1.407       .  A
C1395      F1402   1.354       .  S
C1396      C1397   1.411       .  A
C1396      F1401   1.357       .  S
C1397      C1398   1.409       .  A
C1398      F1399   1.358       .  S
C1403      C1404   1.408       .  A
C1403      C1408   1.392       .  A
C1403      F1410   1.358       .  S
C1404      C1405   1.410       .  A
C1405      C1406   1.402       .  A
C1405      F1412   1.357       .  S
C1406      C1407   1.403       .  A
C1406      F1411   1.358       .  S
C1407      C1408   1.404       .  A
C1408      F1409   1.358       .  S
C1413      C1414   1.408       .  A
C1413      C1418   1.403       .  A
C1413      F1420   1.358       .  S
C1414      C1415   1.412       .  A
C1415      C1416   1.402       .  A
C1415      F1422   1.358       .  S
C1416      C1417   1.409       .  A
C1416      F1421   1.354       .  S
C1417      C1418   1.415       .  A
C1418      F1419   1.358       .  S
C1423      C1424   1.413       .  A
C1423      C1428   1.392       .  A
C1423      F1430   1.358       .  S
C1424      C1425   1.413       .  A
C1425      C1426   1.404       .  A
C1425      F1432   1.357   1_556  S
C1426      C1427   1.403       .  A
C1426      F1431   1.358       .  S
C1427      C1428   1.401       .  A
C1428      F1429   1.357       .  S
C1433      C1434   1.403       .  A
C1433      C1438   1.392       .  A
C1433      F1440   1.359       .  S
C1434      C1435   1.412       .  A
C1435      C1436   1.413       .  A
C1435      F1442   1.354       .  S
C1436      C1437   1.412       .  A
C1436      F1441   1.357       .  S
C1437      C1438   1.417       .  A
C1438      F1439   1.358       .  S
C1443      C1444   1.406       .  A
C1443      C1448   1.394       .  A
C1443      F1450   1.359       .  S
C1444      C1445   1.421       .  A
C1445      C1446   1.406       .  A
C1445      F1452   1.356       .  S
C1446      C1447   1.406       .  A
C1446      F1451   1.358       .  S
C1447      C1448   1.417       .  A
C1448      F1449   1.358       .  S
C1453      C1454   1.405       .  A
C1453      C1458   1.398       .  A
C1453      F1460   1.357       .  S
C1454      C1455   1.406       .  A
C1455      C1456   1.391       .  A
C1455      F1462   1.358       .  S
C1456      C1457   1.406       .  A
C1456      F1461   1.358       .  S
C1457      C1458   1.410       .  A
C1458      F1459   1.358       .  S
C1463      C1464   1.429       .  A
C1463      C1468   1.395       .  A
C1463      F1470   1.358       .  S
C1464      C1465   1.407       .  A
C1465      C1466   1.406   1_556  A
C1465      F1472   1.356   1_556  S
C1466      C1467   1.415   1_554  A
C1466      F1471   1.358       .  S
C1467      C1468   1.394       .  A
C1468      F1469   1.358       .  S
C1473      C1474   1.420       .  A
C1473      C1478   1.405       .  A
C1473      F1480   1.357       .  S
C1474      C1475   1.405       .  A
C1475      C1476   1.399       .  A
C1475      F1482   1.358       .  S
C1476      C1477   1.419       .  A
C1476      F1481   1.358       .  S
C1477      C1478   1.405       .  A
C1478      F1479   1.357       .  S
C1483      C1484   1.410       .  A
C1483      C1488   1.403       .  A
C1483      F1490   1.358       .  S
C1484      C1485   1.403       .  A
C1485      C1486   1.399       .  A
C1485      F1492   1.358       .  S
C1486      C1487   1.411       .  A
C1486      F1491   1.356       .  S
C1487      C1488   1.405       .  A
C1488      F1489   1.358       .  S
C1493      C1494   1.407       .  A
C1493      C1498   1.392       .  A
C1493      F1500   1.358       .  S
C1494      C1495   1.415       .  A
C1495      C1496   1.403       .  A
C1495      F1502   1.358   1_565  S
C1496      C1497   1.402       .  A
C1496      F1501   1.358       .  S
C1497      C1498   1.406       .  A
C1498      F1499   1.357       .  S
C1503      C1504   1.390       .  A
C1503      C1508   1.391       .  A
C1503      F1510   1.358       .  S
C1504      C1505   1.418       .  A
C1505      C1506   1.407       .  A
C1505      F1512   1.358   1_556  S
C1506      C1507   1.405       .  A
C1506      F1511   1.355   1_556  S
C1507      C1508   1.430       .  A
C1508      F1509   1.359       .  S
C1513      C1514   1.409       .  A
C1513      C1518   1.411       .  A
C1513      F1520   1.355       .  S
C1514      C1515   1.412       .  A
C1515      C1516   1.394       .  A
C1515      F1522   1.359       .  S
C1516      C1517   1.406       .  A
C1516      F1521   1.359       .  S
C1517      C1518   1.409       .  A
C1518      F1519   1.358       .  S
C1523      C1524   1.407       .  A
C1523      C1528   1.397       .  A
C1523      F1530   1.356       .  S
C1524      C1525   1.397       .  A
C1525      C1526   1.388       .  A
C1525      F1532   1.358       .  S
C1526      C1527   1.409       .  A
C1526      F1531   1.358       .  S
C1527      C1528   1.398       .  A
C1528      F1529   1.358       .  S
C1533      C1534   1.413       .  A
C1533      C1538   1.413       .  A
C1533      F1540   1.357       .  S
C1534      C1535   1.416       .  A
C1535      C1536   1.394       .  A
C1535      F1542   1.358       .  S
C1536      C1537   1.404       .  A
C1536      F1541   1.359       .  S
C1537      C1538   1.408       .  A
C1538      F1539   1.355       .  S
C1543      C1544   1.413       .  A
C1543      C1548   1.401       .  A
C1543      F1550   1.359       .  S
C1544      C1545   1.410       .  A
C1545      C1546   1.405       .  A
C1545      F1552   1.354       .  S
C1546      C1547   1.411       .  A
C1546      F1551   1.358       .  S
C1547      C1548   1.409       .  A
C1548      F1549   1.358       .  S
C1553      C1554   1.406       .  A
C1553      C1558   1.399       .  A
C1553      F1560   1.357       .  S
C1554      C1555   1.407       .  A
C1555      C1556   1.390       .  A
C1555      F1562   1.359       .  S
C1556      C1557   1.407       .  A
C1556      F1561   1.358       .  S
C1557      C1558   1.412       .  A
C1558      F1559   1.358       .  S
C1563      C1564   1.406       .  A
C1563      C1568   1.391       .  A
C1563      F1570   1.357       .  S
C1564      C1565   1.402       .  A
C1565      C1566   1.400       .  A
C1565      F1572   1.358       .  S
C1566      C1567   1.409       .  A
C1566      F1571   1.354   1_455  S
C1567      C1568   1.407       .  A
C1568      F1569   1.359       .  S
C1573      C1574   1.400       .  A
C1573      C1578   1.401       .  A
C1573      F1580   1.358       .  S
C1574      C1575   1.410       .  A
C1575      C1576   1.392       .  A
C1575      F1582   1.358       .  S
C1576      C1577   1.404       .  A
C1576      F1581   1.358       .  S
C1577      C1578   1.412       .  A
C1578      F1579   1.357   1_554  S
C1583      C1584   1.404       .  A
C1583      C1588   1.392       .  A
C1583      F1590   1.358       .  S
C1584      C1585   1.402       .  A
C1585      C1586   1.396       .  A
C1585      F1592   1.357       .  S
C1586      C1587   1.411       .  A
C1586      F1591   1.358       .  S
C1587      C1588   1.406       .  A
C1588      F1589   1.358       .  S
C1593      C1594   1.409       .  A
C1593      C1598   1.403       .  A
C1593      F1600   1.358       .  S
C1594      C1595   1.403       .  A
C1595      C1596   1.402       .  A
C1595      F1602   1.358       .  S
C1596      C1597   1.414       .  A
C1596      F1601   1.356       .  S
C1597      C1598   1.404       .  A
C1598      F1599   1.357       .  S
C1603      C1604   1.397       .  A
C1603      C1608   1.393       .  A
C1603      F1610   1.358       .  S
C1604      C1605   1.420       .  A
C1605      C1606   1.405       .  A
C1605      F1612   1.358       .  S
C1606      C1607   1.404       .  A
C1606      F1611   1.355       .  S
C1607      C1608   1.425       .  A
C1608      F1609   1.359       .  S
C1613      C1614   1.412       .  A
C1613      C1618   1.404       .  A
C1613      F1620   1.359       .  S
C1614      C1615   1.417       .  A
C1615      C1616   1.406       .  A
C1615      F1622   1.358       .  S
C1616      C1617   1.407       .  A
C1616      F1621   1.357       .  S
C1617      C1618   1.416       .  A
C1618      F1619   1.358       .  S
C1623      C1624   1.402       .  A
C1623      C1628   1.404       .  A
C1623      F1630   1.354       .  S
C1624      C1625   1.426       .  A
C1625      C1626   1.394       .  A
C1625      F1632   1.358       .  S
C1626      C1627   1.396       .  A
C1626      F1631   1.358       .  S
C1627      C1628   1.425       .  A
C1628      F1629   1.358       .  S
C1633      C1634   1.408       .  A
C1633      C1638   1.398       .  A
C1633      F1640   1.359       .  S
C1634      C1635   1.410       .  A
C1635      C1636   1.416       .  A
C1635      F1642   1.355       .  S
C1636      C1637   1.414       .  A
C1636      F1641   1.357       .  S
C1637      C1638   1.415       .  A
C1638      F1639   1.358       .  S
C1643      C1644   1.403   1_545  A
C1643      C1648   1.404       .  A
C1643      F1650   1.355       .  S
C1644      C1645   1.428       .  A
C1645      C1646   1.393       .  A
C1645      F1652   1.358       .  S
C1646      C1647   1.394       .  A
C1646      F1651   1.358       .  S
C1647      C1648   1.421   1_565  A
C1648      F1649   1.358       .  S
C1653      C1654   1.402       .  A
C1653      C1658   1.403       .  A
C1653      F1660   1.355   1_554  S
C1654      C1655   1.428       .  A
C1655      C1656   1.395       .  A
C1655      F1662   1.360       .  S
C1656      C1657   1.393       .  A
C1656      F1661   1.358       .  S
C1657      C1658   1.420       .  A
C1658      F1659   1.358   1_554  S
C1663      C1664   1.405       .  A
C1663      C1668   1.406       .  A
C1663      F1670   1.357       .  S
C1664      C1665   1.425       .  A
C1665      C1666   1.398       .  A
C1665      F1672   1.359   1_554  S
C1666      C1667   1.394       .  A
C1666      F1671   1.358       .  S
C1667      C1668   1.414       .  A
C1668      F1669   1.356       .  S
C1673      C1674   1.418       .  A
C1673      C1678   1.404       .  A
C1673      F1680   1.358       .  S
C1674      C1675   1.408       .  A
C1675      C1676   1.404       .  A
C1675      F1682   1.358       .  S
C1676      C1677   1.418       .  A
C1676      F1681   1.359       .  S
C1677      C1678   1.403       .  A
C1678      F1679   1.355       .  S
C1683      C1684   1.412       .  A
C1683      C1688   1.391       .  A
C1683      F1690   1.357       .  S
C1684      C1685   1.400       .  A
C1685      C1686   1.401       .  A
C1685      F1692   1.358       .  S
C1686      C1687   1.410       .  A
C1686      F1691   1.357       .  S
C1687      C1688   1.398       .  A
C1688      F1689   1.358       .  S
C1693      C1694   1.415       .  A
C1693      C1698   1.403       .  A
C1693      F1700   1.355   1_554  S
C1694      C1695   1.408       .  A
C1695      C1696   1.393       .  A
C1695      F1702   1.358       .  S
C1696      C1697   1.407       .  A
C1696      F1701   1.358       .  S
C1697      C1698   1.400       .  A
C1698      F1699   1.358       .  S
C1703      C1704   1.430       .  A
C1703      C1708   1.394       .  A
C1703      F1710   1.359       .  S
C1704      C1705   1.403       .  A
C1705      C1706   1.403       .  A
C1705      F1712   1.354   1_565  S
C1706      C1707   1.416       .  A
C1706      F1711   1.358   1_565  S
C1707      C1708   1.389       .  A
C1708      F1709   1.358       .  S
C1713      C1714   1.408       .  A
C1713      C1718   1.397       .  A
C1713      F1720   1.359       .  S
C1714      C1715   1.410       .  A
C1715      C1716   1.413       .  A
C1715      F1722   1.355       .  S
C1716      C1717   1.413       .  A
C1716      F1721   1.357       .  S
C1717      C1718   1.413       .  A
C1718      F1719   1.358       .  S
C1723      C1724   1.411       .  A
C1723      C1728   1.408       .  A
C1723      F1730   1.354       .  S
C1724      C1725   1.411       .  A
C1725      C1726   1.399       .  A
C1725      F1732   1.358       .  S
C1726      C1727   1.409       .  A
C1726      F1731   1.358       .  S
C1727      C1728   1.412       .  A
C1728      F1729   1.358       .  S
C1733      C1734   1.403       .  A
C1733      C1738   1.391       .  A
C1733      F1740   1.358       .  S
C1734      C1735   1.400       .  A
C1735      C1736   1.397       .  A
C1735      F1742   1.356       .  S
C1736      C1737   1.410       .  A
C1736      F1741   1.358       .  S
C1737      C1738   1.404       .  A
C1738      F1739   1.358   1_565  S
C1743      C1744   1.409       .  A
C1743      C1748   1.392       .  A
C1743      F1750   1.357       .  S
C1744      C1745   1.404       .  A
C1745      C1746   1.403       .  A
C1745      F1752   1.358       .  S
C1746      C1747   1.409       .  A
C1746      F1751   1.357       .  S
C1747      C1748   1.403       .  A
C1748      F1749   1.358       .  S
C1753      C1754   1.401       .  A
C1753      C1758   1.399       .  A
C1753      F1760   1.354       .  S
C1754      C1755   1.426       .  A
C1755      C1756   1.395       .  A
C1755      F1762   1.359       .  S
C1756      C1757   1.396       .  A
C1756      F1761   1.358       .  S
C1757      C1758   1.423       .  A
C1758      F1759   1.358       .  S
C1763      C1764   1.414       .  A
C1763      C1768   1.403       .  A
C1763      F1770   1.358       .  S
C1764      C1765   1.408       .  A
C1765      C1766   1.402       .  A
C1765      F1772   1.354       .  S
C1766      C1767   1.414       .  A
C1766      F1771   1.358       .  S
C1767      C1768   1.409       .  A
C1768      F1769   1.358       .  S
C1773      C1774   1.411       .  A
C1773      C1778   1.390       .  A
C1773      F1780   1.358       .  S
C1774      C1775   1.410       .  A
C1775      C1776   1.402       .  A
C1775      F1782   1.355       .  S
C1776      C1777   1.402       .  A
C1776      F1781   1.358       .  S
C1777      C1778   1.404       .  A
C1778      F1779   1.358       .  S
C1783      C1784   1.400       .  A
C1783      C1788   1.394       .  A
C1783      F1790   1.356       .  S
C1784      C1785   1.404       .  A
C1785      C1786   1.390       .  A
C1785      F1792   1.358       .  S
C1786      C1787   1.405       .  A
C1786      F1791   1.358       .  S
C1787      C1788   1.410       .  A
C1788      F1789   1.358       .  S
C1793      C1794   1.397       .  A
C1793      C1798   1.402       .  A
C1793      F1800   1.357       .  S
C1794      C1795   1.425       .  A
C1795      C1796   1.402       .  A
C1795      F1802   1.357       .  S
C1796      C1797   1.395       .  A
C1796      F1801   1.358       .  S
C1797      C1798   1.414       .  A
C1798      F1799   1.355       .  S
C1803      C1804   1.418       .  A
C1803      C1808   1.406       .  A
C1803      F1810   1.356       .  S
C1804      C1805   1.412       .  A
C1805      C1806   1.403       .  A
C1805      F1812   1.358       .  S
C1806      C1807   1.414       .  A
C1806      F1811   1.358       .  S
C1807      C1808   1.408       .  A
C1808      F1809   1.358       .  S
C1813      C1814   1.411       .  A
C1813      C1818   1.414       .  A
C1813      F1820   1.355       .  S
C1814      C1815   1.408       .  A
C1815      C1816   1.395       .  A
C1815      F1822   1.359       .  S
C1816      C1817   1.415       .  A
C1816      F1821   1.358       .  S
C1817      C1818   1.413       .  A
C1818      F1819   1.357       .  S
C1823      C1824   1.430       .  A
C1823      C1828   1.391       .  A
C1823      F1830   1.359       .  S
C1824      C1825   1.402       .  A
C1825      C1826   1.405       .  A
C1825      F1832   1.355       .  S
C1826      C1827   1.419       .  A
C1826      F1831   1.358       .  S
C1827      C1828   1.390       .  A
C1828      F1829   1.358       .  S
C1833      C1834   1.410       .  A
C1833      C1838   1.389       .  A
C1833      F1840   1.358       .  S
C1834      C1835   1.411       .  A
C1835      C1836   1.398       .  A
C1835      F1842   1.358       .  S
C1836      C1837   1.403       .  A
C1836      F1841   1.357       .  S
C1837      C1838   1.402       .  A
C1838      F1839   1.359       .  S
C1843      C1844   1.399       .  A
C1843      C1848   1.404       .  A
C1843      F1850   1.358       .  S
C1844      C1845   1.407       .  A
C1845      C1846   1.401       .  A
C1845      F1852   1.358       .  S
C1846      C1847   1.411       .  A
C1846      F1851   1.358       .  S
C1847      C1848   1.422       .  A
C1848      F1849   1.358       .  S
C1853      C1854   1.406       .  A
C1853      C1858   1.408       .  A
C1853      F1860   1.357       .  S
C1854      C1855   1.419       .  A
C1855      C1856   1.399       .  A
C1855      F1862   1.357       .  S
C1856      C1857   1.398       .  A
C1856      F1861   1.358       .  S
C1857      C1858   1.415       .  A
C1858      F1859   1.357       .  S
C1863      C1864   1.402       .  A
C1863      C1868   1.398       .  A
C1863      F1870   1.356       .  S
C1864      C1865   1.405       .  A
C1865      C1866   1.389       .  A
C1865      F1872   1.359       .  S
C1866      C1867   1.408       .  A
C1866      F1871   1.358       .  S
C1867      C1868   1.413       .  A
C1868      F1869   1.358       .  S
C1873      C1874   1.409       .  A
C1873      C1878   1.394       .  A
C1873      F1880   1.359       .  S
C1874      C1875   1.406       .  A
C1875      C1876   1.396       .  A
C1875      F1882   1.356       .  S
C1876      C1877   1.409       .  A
C1876      F1881   1.358       .  S
C1877      C1878   1.406       .  A
C1878      F1879   1.358       .  S
C1883      C1884   1.400       .  A
C1883      C1888   1.402       .  A
C1883      F1890   1.357       .  S
C1884      C1885   1.427       .  A
C1885      C1886   1.398       .  A
C1885      F1892   1.355       .  S
C1886      C1887   1.391       .  A
C1886      F1891   1.357       .  S
C1887      C1888   1.412       .  A
C1888      F1889   1.356       .  S
C1893      C1894   1.432       .  A
C1893      C1898   1.395       .  A
C1893      F1900   1.358       .  S
C1894      C1895   1.406       .  A
C1895      C1896   1.418       .  A
C1895      F1902   1.356       .  S
C1896      C1897   1.425       .  A
C1896      F1901   1.358       .  S
C1897      C1898   1.394       .  A
C1898      F1899   1.358       .  S
C1903      C1904   1.403       .  A
C1903      C1908   1.397       .  A
C1903      F1910   1.355       .  S
C1904      C1905   1.393       .  A
C1905      C1906   1.389       .  A
C1905      F1912   1.359       .  S
C1906      C1907   1.417       .  A
C1906      F1911   1.358       .  S
C1907      C1908   1.405       .  A
C1908      F1909   1.357       .  S
C1913      C1914   1.410       .  A
C1913      C1918   1.404       .  A
C1913      F1920   1.351       .  S
C1914      C1915   1.411       .  A
C1915      C1916   1.398       .  A
C1915      F1922   1.359       .  S
C1916      C1917   1.409       .  A
C1916      F1921   1.358       .  S
C1917      C1918   1.408       .  A
C1918      F1919   1.358       .  S
C1923      C1924   1.406       .  A
C1923      C1928   1.403       .  A
C1923      F1930   1.358   1_556  S
C1924      C1925   1.422       .  A
C1925      C1926   1.410       .  A
C1925      F1932   1.357       .  S
C1926      C1927   1.405       .  A
C1926      F1931   1.357       .  S
C1927      C1928   1.421       .  A
C1928      F1929   1.358   1_556  S
C1933      C1934   1.412       .  A
C1933      C1938   1.390       .  A
C1933      F1940   1.359       .  S
C1934      C1935   1.411       .  A
C1935      C1936   1.409       .  A
C1935      F1942   1.356       .  S
C1936      C1937   1.408       .  A
C1936      F1941   1.358       .  S
C1937      C1938   1.402       .  A
C1938      F1939   1.359       .  S
C1943      C1944   1.401       .  A
C1943      C1948   1.400       .  A
C1943      F1950   1.358       .  S
C1944      C1945   1.407       .  A
C1945      C1946   1.391       .  A
C1945      F1952   1.357       .  S
C1946      C1947   1.406       .  A
C1946      F1951   1.358       .  S
C1947      C1948   1.411       .  A
C1948      F1949   1.356       .  S
C1953      C1954   1.431       .  A
C1953      C1958   1.388       .  A
C1953      F1960   1.360       .  S
C1954      C1955   1.401       .  A
C1955      C1956   1.407       .  A
C1955      F1962   1.355       .  S
C1956      C1957   1.420       .  A
C1956      F1961   1.358       .  S
C1957      C1958   1.388       .  A
C1958      F1959   1.358       .  S
C1963      C1964   1.412       .  A
C1963      C1968   1.407       .  A
C1963      F1970   1.357       .  S
C1964      C1965   1.431       .  A
C1965      C1966   1.393       .  A
C1965      F1972   1.355       .  S
C1966      C1967   1.397       .  A
C1966      F1971   1.358       .  S
C1967      C1968   1.416       .  A
C1968      F1969   1.358       .  S
C1973      C1974   1.427       .  A
C1973      C1978   1.391       .  A
C1973      F1980   1.360       .  S
C1974      C1975   1.402       .  A
C1975      C1976   1.404       .  A
C1975      F1982   1.354   1_554  S
C1976      C1977   1.421       .  A
C1976      F1981   1.358   1_554  S
C1977      C1978   1.394       .  A
C1978      F1979   1.358       .  S
C1983      C1984   1.401       .  A
C1983      C1988   1.407       .  A
C1983      F1990   1.355   1_455  S
C1984      C1985   1.427       .  A
C1985      C1986   1.389       .  A
C1985      F1992   1.360       .  S
C1986      C1987   1.395       .  A
C1986      F1991   1.358       .  S
C1987      C1988   1.426       .  A
C1988      F1989   1.358   1_455  S
C1993      C1994   1.403       .  A
C1993      C1998   1.400       .  A
C1993      F2000   1.356       .  S
C1994      C1995   1.404       .  A
C1995      C1996   1.390       .  A
C1995      F2002   1.358       .  S
C1996      C1997   1.406       .  A
C1996      F2001   1.358       .  S
C1997      C1998   1.411       .  A
C1998      F1999   1.358       .  S
C2003      C2004   1.421       .  A
C2003      C2008   1.403       .  A
C2003      F2010   1.358   1_655  S
C2004      C2005   1.398       .  A
C2005      C2006   1.397       .  A
C2005      F2012   1.358       .  S
C2006      C2007   1.425       .  A
C2006      F2011   1.359       .  S
C2007      C2008   1.405       .  A
C2008      F2009   1.354   1_655  S
C2013      C2014   1.412       .  A
C2013      C2018   1.398       .  A
C2013      F2020   1.359       .  S
C2014      C2015   1.416       .  A
C2015      C2016   1.419       .  A
C2015      F2022   1.356       .  S
C2016      C2017   1.414       .  A
C2016      F2021   1.357       .  S
C2017      C2018   1.412       .  A
C2018      F2019   1.358       .  S
C2023      C2024   1.429       .  A
C2023      C2028   1.392       .  A
C2023      F2030   1.359       .  S
C2024      C2025   1.405       .  A
C2025      C2026   1.403       .  A
C2025      F2032   1.354       .  S
C2026      C2027   1.412       .  A
C2026      F2031   1.358       .  S
C2027      C2028   1.389       .  A
C2028      F2029   1.358       .  S
C2033      C2034   1.404       .  A
C2033      C2038   1.406       .  A
C2033      F2040   1.357       .  S
C2034      C2035   1.421       .  A
C2035      C2036   1.397       .  A
C2035      F2042   1.359       .  S
C2036      C2037   1.405       .  A
C2036      F2041   1.359       .  S
C2037      C2038   1.419       .  A
C2038      F2039   1.357       .  S
C2043      C2044   1.427       .  A
C2043      C2048   1.389       .  A
C2043      F2050   1.360       .  S
C2044      C2045   1.399       .  A
C2045      C2046   1.403   1_455  A
C2045      F2052   1.355   1_455  S
C2046      C2047   1.426   1_655  A
C2046      F2051   1.358       .  S
C2047      C2048   1.394       .  A
C2048      F2049   1.358       .  S
C2053      C2054   1.423       .  A
C2053      C2058   1.389       .  A
C2053      F2060   1.360       .  S
C2054      C2055   1.403       .  A
C2055      C2056   1.409       .  A
C2055      F2062   1.357       .  S
C2056      C2057   1.417       .  A
C2056      F2061   1.356       .  S
C2057      C2058   1.392       .  A
C2058      F2059   1.359       .  S
C2063      C2064   1.394       .  A
C2063      C2068   1.383       .  A
C2063      F2070   1.358       .  S
C2064      C2065   1.408       .  A
C2065      C2066   1.397       .  A
C2065      F2072   1.358       .  S
C2066      C2067   1.402       .  A
C2066      F2071   1.359       .  S
C2067      C2068   1.410       .  A
C2068      F2069   1.354       .  S
C2073      C2074   1.403       .  A
C2073      C2078   1.408       .  A
C2073      F2080   1.355       .  S
C2074      C2075   1.427       .  A
C2075      C2076   1.390       .  A
C2075      F2082   1.359       .  S
C2076      C2077   1.396       .  A
C2076      F2081   1.358       .  S
C2077      C2078   1.425       .  A
C2078      F2079   1.358       .  S
C2083      C2084   1.418       .  A
C2083      C2088   1.408       .  A
C2083      F2090   1.357       .  S
C2084      C2085   1.409       .  A
C2085      C2086   1.402       .  A
C2085      F2092   1.358       .  S
C2086      C2087   1.415       .  A
C2086      F2091   1.359       .  S
C2087      C2088   1.406       .  A
C2088      F2089   1.355       .  S
C2093      C2094   1.419       .  A
C2093      C2098   1.400       .  A
C2093      F2100   1.358       .  S
C2094      C2095   1.408       .  A
C2095      C2096   1.412       .  A
C2095      F2102   1.357       .  S
C2096      C2097   1.414       .  A
C2096      F2101   1.355       .  S
C2097      C2098   1.401       .  A
C2098      F2099   1.358       .  S
C2103      C2104   1.409       .  A
C2103      C2108   1.401       .  A
C2103      F2110   1.354       .  S
C2104      C2105   1.403       .  A
C2105      C2106   1.389       .  A
C2105      F2112   1.359       .  S
C2106      C2107   1.409       .  A
C2106      F2111   1.358       .  S
C2107      C2108   1.400       .  A
C2108      F2109   1.357       .  S
C2113      C2114   1.406       .  A
C2113      C2118   1.393       .  A
C2113      F2120   1.358       .  S
C2114      C2115   1.412       .  A
C2115      C2116   1.393       .  A
C2115      F2122   1.358       .  S
C2116      C2117   1.400       .  A
C2116      F2121   1.356       .  S
C2117      C2118   1.406       .  A
C2118      F2119   1.358       .  S
C2123      C2124   1.413       .  A
C2123      C2128   1.403       .  A
C2123      F2130   1.358       .  S
C2124      C2125   1.392       .  A
C2125      C2126   1.394       .  A
C2125      F2132   1.359       .  S
C2126      C2127   1.424       .  A
C2126      F2131   1.358   1_565  S
C2127      C2128   1.405       .  A
C2128      F2129   1.357       .  S
C2133      C2134   1.405       .  A
C2133      C2138   1.394       .  A
C2133      F2140   1.358       .  S
C2134      C2135   1.402       .  A
C2135      C2136   1.399       .  A
C2135      F2142   1.356       .  S
C2136      C2137   1.408       .  A
C2136      F2141   1.358       .  S
C2137      C2138   1.405       .  A
C2138      F2139   1.358       .  S
C2143      C2144   1.409       .  A
C2143      C2148   1.389       .  A
C2143      F2150   1.356       .  S
C2144      C2145   1.399       .  A
C2145      C2146   1.397       .  A
C2145      F2152   1.358       .  S
C2146      C2147   1.410       .  A
C2146      F2151   1.358       .  S
C2147      C2148   1.398       .  A
C2148      F2149   1.358       .  S
C2153      C2154   1.404       .  A
C2153      C2158   1.398       .  A
C2153      F2160   1.359       .  S
C2154      C2155   1.419       .  A
C2155      C2156   1.407       .  A
C2155      F2162   1.358       .  S
C2156      C2157   1.407       .  A
C2156      F2161   1.357       .  S
C2157      C2158   1.422       .  A
C2158      F2159   1.358       .  S
C2163      C2164   1.397       .  A
C2163      C2168   1.394       .  A
C2163      F2170   1.358       .  S
C2164      C2165   1.426       .  A
C2165      C2166   1.409       .  A
C2165      F2172   1.358   1_545  S
C2166      C2167   1.402       .  A
C2166      F2171   1.355   1_545  S
C2167      C2168   1.428       .  A
C2168      F2169   1.359       .  S
C2173      C2174   1.405       .  A
C2173      C2178   1.405       .  A
C2173      F2180   1.355       .  S
C2174      C2175   1.414       .  A
C2175      C2176   1.405       .  A
C2175      F2182   1.358       .  S
C2176      C2177   1.409       .  A
C2176      F2181   1.358       .  S
C2177      C2178   1.415       .  A
C2178      F2179   1.358       .  S
C2183      C2184   1.420       .  A
C2183      C2188   1.404       .  A
C2183      F2190   1.357       .  S
C2184      C2185   1.413       .  A
C2185      C2186   1.402       .  A
C2185      F2192   1.359   1_565  S
C2186      C2187   1.408       .  A
C2186      F2191   1.358   1_565  S
C2187      C2188   1.401       .  A
C2188      F2189   1.358       .  S
C2193      C2194   1.404       .  A
C2193      C2198   1.397       .  A
C2193      F2200   1.359       .  S
C2194      C2195   1.420       .  A
C2195      C2196   1.405       .  A
C2195      F2202   1.356       .  S
C2196      C2197   1.404       .  A
C2196      F2201   1.357       .  S
C2197      C2198   1.423       .  A
C2198      F2199   1.359       .  S
C2203      C2204   1.405       .  A
C2203      C2208   1.395       .  A
C2203      F2210   1.359       .  S
C2204      C2205   1.419       .  A
C2205      C2206   1.404       .  A
C2205      F2212   1.356       .  S
C2206      C2207   1.405       .  A
C2206      F2211   1.358       .  S
C2207      C2208   1.418       .  A
C2208      F2209   1.358       .  S
C2213      C2214   1.392       .  A
C2213      C2218   1.391       .  A
C2213      F2220   1.359       .  S
C2214      C2215   1.419       .  A
C2215      C2216   1.404       .  A
C2215      F2222   1.358       .  S
C2216      C2217   1.405       .  A
C2216      F2221   1.356       .  S
C2217      C2218   1.436       .  A
C2218      F2219   1.356       .  S
C2223      C2224   1.405       .  A
C2223      C2228   1.403       .  A
C2223      F2230   1.358       .  S
C2224      C2225   1.404       .  A
C2225      C2226   1.402       .  A
C2225      F2232   1.358       .  S
C2226      C2227   1.414       .  A
C2226      F2231   1.358       .  S
C2227      C2228   1.416       .  A
C2228      F2229   1.359       .  S
C2233      C2234   1.414       .  A
C2233      C2238   1.396       .  A
C2233      F2240   1.358       .  S
C2234      C2235   1.415       .  A
C2235      C2236   1.417       .  A
C2235      F2242   1.357       .  S
C2236      C2237   1.410       .  A
C2236      F2241   1.356       .  S
C2237      C2238   1.409       .  A
C2238      F2239   1.359       .  S
C2243      C2244   1.395       .  A
C2243      C2248   1.399       .  A
C2243      F2250   1.358       .  S
C2244      C2245   1.408       .  A
C2245      C2246   1.402       .  A
C2245      F2252   1.358       .  S
C2246      C2247   1.405       .  A
C2246      F2251   1.358       .  S
C2247      C2248   1.418       .  A
C2248      F2249   1.352       .  S
C2253      C2254   1.405       .  A
C2253      C2258   1.387       .  A
C2253      F2260   1.358       .  S
C2254      C2255   1.411       .  A
C2255      C2256   1.406       .  A
C2255      F2262   1.357       .  S
C2256      C2257   1.405       .  A
C2256      F2261   1.358       .  S
C2257      C2258   1.404       .  A
C2258      F2259   1.358       .  S
C2263      C2264   1.410       .  A
C2263      C2268   1.400       .  A
C2263      F2270   1.358       .  S
C2264      C2265   1.405       .  A
C2265      C2266   1.389       .  A
C2265      F2272   1.358       .  S
C2266      C2267   1.403       .  A
C2266      F2271   1.358       .  S
C2267      C2268   1.404       .  A
C2268      F2269   1.357       .  S
C2273      C2274   1.391       .  A
C2273      C2278   1.390       .  A
C2273      F2280   1.358       .  S
C2274      C2275   1.417   1_565  A
C2275      C2276   1.412   1_545  A
C2275      F2282   1.357       .  S
C2276      C2277   1.405       .  A
C2276      F2281   1.355   1_565  S
C2277      C2278   1.427       .  A
C2278      F2279   1.359       .  S
C2283      C2284   1.417       .  A
C2283      C2288   1.403       .  A
C2283      F2290   1.358       .  S
C2284      C2285   1.415       .  A
C2285      C2286   1.401       .  A
C2285      F2292   1.359       .  S
C2286      C2287   1.405       .  A
C2286      F2291   1.359       .  S
C2287      C2288   1.402       .  A
C2288      F2289   1.357       .  S
C2293      C2294   1.396       .  A
C2293      C2298   1.404       .  A
C2293      F2300   1.357       .  S
C2294      C2295   1.427       .  A
C2295      C2296   1.402       .  A
C2295      F2302   1.359       .  S
C2296      C2297   1.395       .  A
C2296      F2301   1.357       .  S
C2297      C2298   1.413       .  A
C2298      F2299   1.351       .  S
C2303      C2304   1.408       .  A
C2303      C2308   1.407       .  A
C2303      F2310   1.358       .  S
C2304      C2305   1.416       .  A
C2305      C2306   1.403       .  A
C2305      F2312   1.352       .  S
C2306      C2307   1.401       .  A
C2306      F2311   1.358       .  S
C2307      C2308   1.410       .  A
C2308      F2309   1.358       .  S
C2313      C2314   1.403       .  A
C2313      C2318   1.398       .  A
C2313      F2320   1.357       .  S
C2314      C2315   1.402       .  A
C2315      C2316   1.387       .  A
C2315      F2322   1.359       .  S
C2316      C2317   1.409       .  A
C2316      F2321   1.358       .  S
C2317      C2318   1.412       .  A
C2318      F2319   1.358       .  S
C2323      C2324   1.410       .  A
C2323      C2328   1.402       .  A
C2323      F2330   1.357       .  S
C2324      C2325   1.408       .  A
C2325      C2326   1.387       .  A
C2325      F2332   1.359       .  S
C2326      C2327   1.403       .  A
C2326      F2331   1.358       .  S
C2327      C2328   1.404       .  A
C2328      F2329   1.358       .  S
C2333      C2334   1.406       .  A
C2333      C2338   1.407       .  A
C2333      F2340   1.357       .  S
C2334      C2335   1.419       .  A
C2335      C2336   1.400       .  A
C2335      F2342   1.358       .  S
C2336      C2337   1.408       .  A
C2336      F2341   1.359       .  S
C2337      C2338   1.418       .  A
C2338      F2339   1.357       .  S
C2343      C2344   1.397       .  A
C2343      C2348   1.397       .  A
C2343      F2350   1.354   1_655  S
C2344      C2345   1.429       .  A
C2345      C2346   1.394       .  A
C2345      F2352   1.360       .  S
C2346      C2347   1.394       .  A
C2346      F2351   1.358       .  S
C2347      C2348   1.427       .  A
C2348      F2349   1.358   1_655  S
C2353      C2354   1.409       .  A
C2353      C2358   1.403       .  A
C2353      F2360   1.358       .  S
C2354      C2355   1.414       .  A
C2355      C2356   1.402       .  A
C2355      F2362   1.358       .  S
C2356      C2357   1.407       .  A
C2356      F2361   1.355       .  S
C2357      C2358   1.415       .  A
C2358      F2359   1.359       .  S
C2363      C2364   1.397       .  A
C2363      C2368   1.391       .  A
C2363      F2370   1.359       .  S
C2364      C2365   1.413       .  A
C2365      C2366   1.407       .  A
C2365      F2372   1.356       .  S
C2366      C2367   1.405       .  A
C2366      F2371   1.357       .  S
C2367      C2368   1.417       .  A
C2368      F2369   1.359       .  S
C2373      C2374   1.405       .  A
C2373      C2378   1.397       .  A
C2373      F2380   1.353       .  S
C2374      C2375   1.407       .  A
C2375      C2376   1.396       .  A
C2375      F2382   1.358       .  S
C2376      C2377   1.405       .  A
C2376      F2381   1.358       .  S
C2377      C2378   1.406       .  A
C2378      F2379   1.358       .  S
C2383      C2384   1.410       .  A
C2383      C2388   1.390       .  A
C2383      F2390   1.359       .  S
C2384      C2385   1.399       .  A
C2385      C2386   1.397       .  A
C2385      F2392   1.357       .  S
C2386      C2387   1.407       .  A
C2386      F2391   1.358       .  S
C2387      C2388   1.398       .  A
C2388      F2389   1.358       .  S
C2393      C2394   1.407       .  A
C2393      C2398   1.404       .  A
C2393      F2400   1.357       .  S
C2394      C2395   1.418       .  A
C2395      C2396   1.399       .  A
C2395      F2402   1.358       .  S
C2396      C2397   1.407       .  A
C2396      F2401   1.358       .  S
C2397      C2398   1.418       .  A
C2398      F2399   1.356       .  S
C2403      C2404   1.401       .  A
C2403      C2408   1.402       .  A
C2403      F2410   1.355       .  S
C2404      C2405   1.430       .  A
C2405      C2406   1.398       .  A
C2405      F2412   1.359       .  S
C2406      C2407   1.394       .  A
C2406      F2411   1.358       .  S
C2407      C2408   1.421       .  A
C2408      F2409   1.359       .  S
C2413      C2414   1.405       .  A
C2413      C2418   1.405       .  A
C2413      F2420   1.357       .  S
C2414      C2415   1.423       .  A
C2415      C2416   1.391       .  A
C2415      F2422   1.359       .  S
C2416      C2417   1.391       .  A
C2416      F2421   1.359       .  S
C2417      C2418   1.414       .  A
C2418      F2419   1.357       .  S
C2423      C2424   1.391       .  A
C2423      C2428   1.392       .  A
C2423      F2430   1.359       .  S
C2424      C2425   1.408       .  A
C2425      C2426   1.405       .  A
C2425      F2432   1.358       .  S
C2426      C2427   1.408       .  A
C2426      F2431   1.358       .  S
C2427      C2428   1.422       .  A
C2428      F2429   1.348       .  S
C2433      C2434   1.409       .  A
C2433      C2438   1.402       .  A
C2433      F2440   1.357       .  S
C2434      C2435   1.400       .  A
C2435      C2436   1.394       .  A
C2435      F2442   1.358       .  S
C2436      C2437   1.409       .  A
C2436      F2441   1.358       .  S
C2437      C2438   1.401       .  A
C2438      F2439   1.358       .  S
C2443      C2444   1.414       .  A
C2443      C2448   1.404       .  A
C2443      F2450   1.357       .  S
C2444      C2445   1.411       .  A
C2445      C2446   1.394       .  A
C2445      F2452   1.358       .  S
C2446      C2447   1.406       .  A
C2446      F2451   1.358       .  S
C2447      C2448   1.402       .  A
C2448      F2449   1.358       .  S
C2453      C2454   1.395       .  A
C2453      C2458   1.400       .  A
C2453      F2460   1.358       .  S
C2454      C2455   1.420       .  A
C2455      C2456   1.405       .  A
C2455      F2462   1.358       .  S
C2456      C2457   1.403       .  A
C2456      F2461   1.355       .  S
C2457      C2458   1.429       .  A
C2458      F2459   1.359       .  S
C2463      C2464   1.418       .  A
C2463      C2468   1.405       .  A
C2463      F2470   1.358       .  S
C2464      C2465   1.393       .  A
C2465      C2466   1.398       .  A
C2465      F2472   1.358       .  S
C2466      C2467   1.436       .  A
C2466      F2471   1.355       .  S
C2467      C2468   1.409       .  A
C2468      F2469   1.357       .  S
C2473      C2474   1.413       .  A
C2473      C2478   1.404       .  A
C2473      F2480   1.358       .  S
C2474      C2475   1.407       .  A
C2475      C2476   1.397       .  A
C2475      F2482   1.358       .  S
C2476      C2477   1.412       .  A
C2476      F2481   1.359       .  S
C2477      C2478   1.406       .  A
C2478      F2479   1.355       .  S
C2483      C2484   1.407       .  A
C2483      C2488   1.410       .  A
C2483      F2490   1.358       .  S
C2484      C2485   1.408       .  A
C2485      C2486   1.390       .  A
C2485      F2492   1.360       .  S
C2486      C2487   1.408       .  A
C2486      F2491   1.360       .  S
C2487      C2488   1.413       .  A
C2488      F2489   1.355       .  S
C2493      C2494   1.408       .  A
C2493      C2498   1.395       .  A
C2493      F2500   1.358       .  S
C2494      C2495   1.415       .  A
C2495      C2496   1.407       .  A
C2495      F2502   1.357       .  S
C2496      C2497   1.401       .  A
C2496      F2501   1.358       .  S
C2497      C2498   1.407       .  A
C2498      F2499   1.359       .  S
C2503      C2504   1.409       .  A
C2503      C2508   1.402       .  A
C2503      F2510   1.356       .  S
C2504      C2505   1.401       .  A
C2505      C2506   1.392       .  A
C2505      F2512   1.358       .  S
C2506      C2507   1.410       .  A
C2506      F2511   1.357       .  S
C2507      C2508   1.401       .  A
C2508      F2509   1.358       .  S
C2513      C2514   1.419       .  A
C2513      C2518   1.408       .  A
C2513      F2520   1.358       .  S
C2514      C2515   1.390       .  A
C2515      C2516   1.386       .  A
C2515      F2522   1.359       .  S
C2516      C2517   1.430       .  A
C2516      F2521   1.360       .  S
C2517      C2518   1.403       .  A
C2518      F2519   1.356       .  S
C2523      C2524   1.405       .  A
C2523      C2528   1.403       .  A
C2523      F2530   1.358       .  S
C2524      C2525   1.403       .  A
C2525      C2526   1.399       .  A
C2525      F2532   1.359       .  S
C2526      C2527   1.415       .  A
C2526      F2531   1.358       .  S
C2527      C2528   1.415       .  A
C2528      F2529   1.358       .  S
C2533      C2534   1.414       .  A
C2533      C2538   1.416       .  A
C2533      F2540   1.357       .  S
C2534      C2535   1.416       .  A
C2535      C2536   1.395       .  A
C2535      F2542   1.358       .  S
C2536      C2537   1.404       .  A
C2536      F2541   1.359       .  S
C2537      C2538   1.412       .  A
C2538      F2539   1.355       .  S
C2543      C2544   1.417       .  A
C2543      C2548   1.404       .  A
C2543      F2550   1.352       .  S
C2544      C2545   1.405       .  A
C2545      C2546   1.403       .  A
C2545      F2552   1.358       .  S
C2546      C2547   1.409       .  A
C2546      F2551   1.357       .  S
C2547      C2548   1.398       .  A
C2548      F2549   1.357       .  S
C2553      C2554   1.414       .  A
C2553      C2558   1.395       .  A
C2553      F2560   1.358       .  S
C2554      C2555   1.408       .  A
C2555      C2556   1.393       .  A
C2555      F2562   1.358       .  S
C2556      C2557   1.405       .  A
C2556      F2561   1.358       .  S
C2557      C2558   1.398       .  A
C2558      F2559   1.356       .  S
C2563      C2564   1.397       .  A
C2563      C2568   1.388       .  A
C2563      F2570   1.359       .  S
C2564      C2565   1.403       .  A
C2565      C2566   1.398       .  A
C2565      F2572   1.355       .  S
C2566      C2567   1.402       .  A
C2566      F2571   1.358       .  S
C2567      C2568   1.406       .  A
C2568      F2569   1.358       .  S
C2573      C2574   1.431       .  A
C2573      C2578   1.399       .  A
C2573      F2580   1.351       .  S
C2574      C2575   1.410       .  A
C2575      C2576   1.402       .  A
C2575      F2582   1.357       .  S
C2576      C2577   1.418       .  A
C2576      F2581   1.358       .  S
C2577      C2578   1.396       .  A
C2578      F2579   1.358       .  S
C2583      C2584   1.419       .  A
C2583      C2588   1.401       .  A
C2583      F2590   1.358       .  S
C2584      C2585   1.406       .  A
C2585      C2586   1.409       .  A
C2585      F2592   1.357       .  S
C2586      C2587   1.421       .  A
C2586      F2591   1.357       .  S
C2587      C2588   1.407       .  A
C2588      F2589   1.358       .  S
C2593      C2594   1.408       .  A
C2593      C2598   1.407       .  A
C2593      F2600   1.358       .  S
C2594      C2595   1.408       .  A
C2595      C2596   1.392       .  A
C2595      F2602   1.359       .  S
C2596      C2597   1.406       .  A
C2596      F2601   1.359       .  S
C2597      C2598   1.407       .  A
C2598      F2599   1.355       .  S
C2603      C2604   1.412       .  A
C2603      C2608   1.403       .  A
C2603      F2610   1.354       .  S
C2604      C2605   1.414       .  A
C2605      C2606   1.399       .  A
C2605      F2612   1.358       .  S
C2606      C2607   1.408       .  A
C2606      F2611   1.358       .  S
C2607      C2608   1.410       .  A
C2608      F2609   1.358       .  S
C2613      C2614   1.413       .  A
C2613      C2618   1.401       .  A
C2613      F2620   1.354       .  S
C2614      C2615   1.406       .  A
C2615      C2616   1.395       .  A
C2615      F2622   1.358       .  S
C2616      C2617   1.410       .  A
C2616      F2621   1.357       .  S
C2617      C2618   1.400       .  A
C2618      F2619   1.358       .  S
C2623      C2624   1.410       .  A
C2623      C2628   1.401       .  A
C2623      F2630   1.357       .  S
C2624      C2625   1.398       .  A
C2625      C2626   1.390       .  A
C2625      F2632   1.358       .  S
C2626      C2627   1.409       .  A
C2626      F2631   1.358       .  S
C2627      C2628   1.400       .  A
C2628      F2629   1.358       .  S
C2633      C2634   1.407       .  A
C2633      C2638   1.407       .  A
C2633      F2640   1.357       .  S
C2634      C2635   1.420       .  A
C2635      C2636   1.399       .  A
C2635      F2642   1.358       .  S
C2636      C2637   1.407       .  A
C2636      F2641   1.359       .  S
C2637      C2638   1.418       .  A
C2638      F2639   1.358       .  S
C2643      C2644   1.404       .  A
C2643      C2648   1.403       .  A
C2643      F2650   1.358       .  S
C2644      C2645   1.404       .  A
C2645      C2646   1.404       .  A
C2645      F2652   1.358       .  S
C2646      C2647   1.417       .  A
C2646      F2651   1.358       .  S
C2647      C2648   1.417       .  A
C2648      F2649   1.358       .  S
C2653      C2654   1.408       .  A
C2653      C2658   1.405       .  A
C2653      F2660   1.358       .  S
C2654      C2655   1.415       .  A
C2655      C2656   1.406       .  A
C2655      F2662   1.358       .  S
C2656      C2657   1.410       .  A
C2656      F2661   1.355       .  S
C2657      C2658   1.419       .  A
C2658      F2659   1.358       .  S
C2663      C2664   1.406       .  A
C2663      C2668   1.390       .  A
C2663      F2670   1.359       .  S
C2664      C2665   1.411       .  A
C2665      C2666   1.414       .  A
C2665      F2672   1.355       .  S
C2666      C2667   1.409       .  A
C2666      F2671   1.357       .  S
C2667      C2668   1.410       .  A
C2668      F2669   1.359       .  S
C2673      C2674   1.404       .  A
C2673      C2678   1.393       .  A
C2673      F2680   1.358       .  S
C2674      C2675   1.405       .  A
C2675      C2676   1.396       .  A
C2675      F2682   1.354       .  S
C2676      C2677   1.405       .  A
C2676      F2681   1.358       .  S
C2677      C2678   1.408       .  A
C2678      F2679   1.358   1_556  S
C2683      C2684   1.408       .  A
C2683      C2688   1.397       .  A
C2683      F2690   1.357       .  S
C2684      C2685   1.396       .  A
C2685      C2686   1.392       .  A
C2685      F2692   1.358       .  S
C2686      C2687   1.413       .  A
C2686      F2691   1.358       .  S
C2687      C2688   1.398       .  A
C2688      F2689   1.358       .  S
C2693      C2694   1.395       .  A
C2693      C2698   1.393       .  A
C2693      F2700   1.358       .  S
C2694      C2695   1.423       .  A
C2695      C2696   1.410       .  A
C2695      F2702   1.358       .  S
C2696      C2697   1.405       .  A
C2696      F2701   1.355       .  S
C2697      C2698   1.430       .  A
C2698      F2699   1.358       .  S
C2703      C2704   1.428       .  A
C2703      C2708   1.394       .  A
C2703      F2710   1.359       .  S
C2704      C2705   1.404       .  A
C2705      C2706   1.403       .  A
C2705      F2712   1.354       .  S
C2706      C2707   1.416       .  A
C2706      F2711   1.359       .  S
C2707      C2708   1.390       .  A
C2708      F2709   1.358       .  S
C2713      C2714   1.410       .  A
C2713      C2718   1.415       .  A
C2713      F2720   1.355       .  S
C2714      C2715   1.410       .  A
C2715      C2716   1.396       .  A
C2715      F2722   1.359       .  S
C2716      C2717   1.414       .  A
C2716      F2721   1.359       .  S
C2717      C2718   1.414       .  A
C2718      F2719   1.357       .  S
C2723      C2724   1.417       .  A
C2723      C2728   1.401       .  A
C2723      F2730   1.356       .  S
C2724      C2725   1.398       .  A
C2725      C2726   1.402       .  A
C2725      F2732   1.358       .  S
C2726      C2727   1.424       .  A
C2726      F2731   1.358       .  S
C2727      C2728   1.400       .  A
C2728      F2729   1.358       .  S
C2733      C2734   1.402       .  A
C2733      C2738   1.398       .  A
C2733      F2740   1.356       .  S
C2734      C2735   1.402       .  A
C2735      C2736   1.388       .  A
C2735      F2742   1.359       .  S
C2736      C2737   1.407       .  A
C2736      F2741   1.358       .  S
C2737      C2738   1.410       .  A
C2738      F2739   1.358       .  S
C2743      C2744   1.411       .  A
C2743      C2748   1.397       .  A
C2743      F2750   1.358       .  S
C2744      C2745   1.409       .  A
C2745      C2746   1.397       .  A
C2745      F2752   1.358       .  S
C2746      C2747   1.405       .  A
C2746      F2751   1.353       .  S
C2747      C2748   1.408       .  A
C2748      F2749   1.359       .  S
