geometry optimzed in LAMMPS
_audit_creation_date              2020-11-30 
_audit_creation_method            'lammps2cif' 
_symmetry_space_group_name_H-M    'P1' 
_symmetry_Int_Tables_number       1 
_symmetry_cell_setting            triclinic 
loop_ 
_symmetry_equiv_pos_as_xyz 
  x,y,z 
_cell_length_a                    44.73423069 
_cell_length_b                    39.541503152627996 
_cell_length_c                    35.207297802817514 
_cell_angle_alpha                 87.2925140802601 
_cell_angle_beta                  89.58911049730656 
_cell_angle_gamma                 89.54129675982453 
loop_ 
_atom_site_label 
_atom_site_type_symbol 
_atom_site_fract_x 
_atom_site_fract_y 
_atom_site_fract_z 
_atom_site_charge 
O1          O  0.46738547  0.47693575  0.05509384    -0.80000
O2          O  0.07518226  0.02429990  0.03560332    -0.80000
O3          O  0.03208670  0.43061690  0.03276614    -0.80000
O4          O  0.46746800  0.04312694  0.04958474    -0.79900
O5          O  0.03296476  0.47817550  0.06159053    -0.80100
O6          O  0.42596825  0.02240387  0.02524471    -0.80000
O7          O  0.03109367  0.04426065  0.05395700    -0.80000
O8          O  0.47162586  0.42945213  0.02675086    -0.80000
C9          C  0.46277708  0.44566228  0.05498208     1.09700
C10         C  0.05984848  0.04358306  0.05619469     1.09600
C11         C  0.03913844  0.44699917  0.06142654     1.09700
C12         C  0.43870134  0.04069241  0.04912299     1.09600
O13         O  0.45311527  0.02121320  0.45450458    -0.80000
O14         O  0.06923724  0.46542771  0.49258805    -0.80100
O15         O  0.47609899  0.44806684  0.44580775    -0.80000
O16         O  0.03262768  0.06839423  0.47189739    -0.80000
O17         O  0.05543974  0.02184236  0.46150539    -0.80000
O18         O  0.43856675  0.46407008  0.48139674    -0.80000
O19         O  0.47278377  0.06818403  0.46859157    -0.79900
O20         O  0.03711507  0.44713328  0.45166734    -0.80000
Co21       Co  0.46162670  0.50104657  0.00499615     1.51500
Co22       Co  0.04270659  0.00252575  0.51111793     1.51700
Co23       Co  0.50432023  0.44247794  0.98916036     1.51600
Co24       Co  0.50176169  0.04926575  0.50766534     1.51500
O25         O  0.50312750  0.49496195  0.99112743    -1.41900
C26         C  0.45599277  0.05204715  0.44766574     1.09600
C27         C  0.06369278  0.44956910  0.46306936     1.09700
C28         C  0.44834095  0.45034765  0.45162291     1.09700
C29         C  0.05159439  0.05239121  0.45316260     1.09600
O30         O  0.31630896  0.29033532  0.26752554    -0.80000
O31         O  0.19957843  0.23278159  0.28752942    -0.80000
O32         O  0.21804191  0.30645695  0.29685770    -0.80000
O33         O  0.28289138  0.18586624  0.27960259    -0.79900
O34         O  0.18624743  0.28907187  0.25515749    -0.80100
O35         O  0.30193688  0.23283301  0.29463906    -0.80000
O36         O  0.22276816  0.18609895  0.27850696    -0.80000
O37         O  0.27873163  0.30633227  0.30304392    -0.80000
C38         C  0.30650338  0.30403289  0.29729678     1.09700
C39         C  0.20362322  0.20241311  0.29666968     1.09600
C40         C  0.19152578  0.30412430  0.28526720     1.09700
C41         C  0.29936363  0.20190209  0.30101334     1.09600
O42         O  0.32830005  0.23167895  0.22368724    -0.80000
O43         O  0.22184958  0.27568381  0.18839518    -0.80100
O44         O  0.28396257  0.32436614  0.22268745    -0.80000
O45         O  0.22279397  0.20880417  0.19751606    -0.80000
O46         O  0.17929629  0.23100790  0.21496170    -0.80000
O47         O  0.28739907  0.27703883  0.19400491    -0.80000
O48         O  0.28642998  0.21093288  0.20011221    -0.79900
O49         O  0.22312368  0.32357726  0.21667672    -0.80000
Co50       Co  0.29320295  0.25259243  0.24392912     1.50700
Co51       Co  0.21250580  0.25159220  0.23784051     1.51700
Co52       Co  0.25106181  0.31145653  0.25997459     1.51600
Co53       Co  0.25348420  0.20497277  0.24107604     1.51500
O54         O  0.25190283  0.25895655  0.25808832    -1.41900
C55         C  0.31522044  0.21341609  0.20006126     1.09600
C56         C  0.21615033  0.30699161  0.18808803     1.09700
C57         C  0.29252278  0.30819157  0.19431883     1.09700
C58         C  0.19404391  0.21073816  0.19500858     1.09600
C59         C  0.13857788  0.15319415  0.14762164     0.18900
C60         C  0.10774554  0.15241678  0.14112127    -0.19200
C61         C  0.09550131  0.12704991  0.11984277    -0.11500
C62         C  0.11392212  0.10154916  0.10525972     0.21100
C63         C  0.14467399  0.10222003  0.11200897    -0.20900
C64         C  0.15688228  0.12748493  0.13332536    -0.11700
C65         C  0.10196375  0.07501066  0.08134798    -0.15900
C66         C  0.07366837  0.06440354  0.08450588    -0.29700
C67         C  0.15097696  0.18007983  0.17077235    -0.04000
C68         C  0.17949032  0.19005203  0.16714401    -0.40500
H69         H  0.09318946  0.17176732  0.15202048     0.12300
H70         H  0.07178054  0.12803326  0.11419193     0.11900
H71         H  0.15926900  0.08288939  0.10108035     0.11300
H72         H  0.18060834  0.12634338  0.13903497     0.11600
H73         H  0.11658085  0.06467304  0.05990742     0.14300
H74         H  0.05904412  0.07406717  0.10627166     0.13100
H75         H  0.13666980  0.19097648  0.19215033     0.10800
H76         H  0.19379291  0.17984797  0.14536573     0.12800
C77         C  0.15131683  0.14096774  0.35252581     0.18900
C78         C  0.13455083  0.11360998  0.34059675    -0.19200
C79         C  0.11049844  0.10096738  0.36246105    -0.11500
C80         C  0.10290480  0.11510736  0.39726638     0.21100
C81         C  0.11953184  0.14263349  0.40907251    -0.20900
C82         C  0.14358561  0.15529572  0.38718823    -0.11700
C83         C  0.07858423  0.10115185  0.42253298    -0.15900
C84         C  0.07053112  0.06842895  0.42300037    -0.29700
C85         C  0.17604504  0.15436768  0.32758110    -0.04000
C86         C  0.18459067  0.18690404  0.32703676    -0.40500
H87         H  0.13978830  0.10228524  0.31389762     0.12300
H88         H  0.09779729  0.08034237  0.35175248     0.11900
H89         H  0.11431270  0.15392418  0.43579249     0.11300
H90         H  0.15629031  0.17591624  0.39788913     0.11600
H91         H  0.06947082  0.11713361  0.44415170     0.14300
H92         H  0.08148402  0.05139715  0.40393416     0.13100
H93         H  0.18505174  0.13814240  0.30611899     0.10800
H94         H  0.17376720  0.20423886  0.34587571     0.12800
C95         C  0.10209303  0.39017860  0.10540205     0.18900
C96         C  0.11451813  0.35871454  0.09639159    -0.19200
C97         C  0.14027929  0.34591605  0.11461453    -0.11500
C98         C  0.15452773  0.36449050  0.14231256     0.21100
C99         C  0.14216672  0.39601282  0.15120255    -0.20900
C100        C  0.11640119  0.40879566  0.13299771    -0.11700
C101        C  0.18068011  0.35119955  0.16484894    -0.15900
C102        C  0.19635979  0.32259400  0.15834888    -0.29700
C103        C  0.07573573  0.40338536  0.08319393    -0.04000
C104        C  0.05950598  0.43142680  0.09056500    -0.40500
H105        H  0.10420473  0.34385435  0.07505079     0.12300
H106        H  0.14846955  0.32130369  0.10719616     0.11900
H107        H  0.15247242  0.41088862  0.17253951     0.11300
H108        H  0.10821148  0.43342153  0.14037533     0.11600
H109        H  0.18597037  0.36477503  0.19005779     0.14300
H110        H  0.19186103  0.30809704  0.13368889     0.13100
H111        H  0.07060959  0.39017528  0.05767929     0.10800
H112        H  0.06383860  0.44551562  0.11558143     0.12800
C113        C  0.36480951  0.14968602  0.14974410     0.18900
C114        C  0.38067617  0.12102503  0.16374784    -0.19200
C115        C  0.39049392  0.09627050  0.13932012    -0.11500
C116        C  0.38495819  0.09976936  0.09998407     0.21100
C117        C  0.36884444  0.12821001  0.08597126    -0.20900
C118        C  0.35908980  0.15304250  0.11038222    -0.11700
C119        C  0.39679054  0.07520608  0.07261716    -0.15900
C120        C  0.42203952  0.05738100  0.07926835    -0.29700
C121        C  0.35385524  0.17460181  0.17736055    -0.04000
C122        C  0.33159475  0.19681980  0.16966480    -0.40500
H123        H  0.38518049  0.11751148  0.19388893     0.12300
H124        H  0.40213792  0.07430739  0.15150337     0.11900
H125        H  0.36442587  0.13167851  0.05580809     0.11300
H126        H  0.34755482  0.17492693  0.09796361     0.11600
H127        H  0.38686204  0.07505880  0.04451002     0.14300
H128        H  0.43400835  0.06019798  0.10561211     0.13100
H129        H  0.36200160  0.17202526  0.20640947     0.10800
H130        H  0.32088872  0.19770200  0.14213201     0.12800
C131        C  0.36596946  0.35514140  0.34671403     0.18900
C132        C  0.37738027  0.38717114  0.33618625    -0.19200
C133        C  0.38967850  0.40752914  0.36345093    -0.11500
C134        C  0.39138249  0.39593505  0.40186555     0.21100
C135        C  0.38009574  0.36379248  0.41231863    -0.20900
C136        C  0.36766070  0.34350840  0.38507110    -0.11700
C137        C  0.40579397  0.41610360  0.43132827    -0.15900
C138        C  0.42854620  0.43708668  0.42272521    -0.29700
C139        C  0.35099217  0.33524089  0.31758196    -0.04000
C140        C  0.32630026  0.31735674  0.32617218    -0.40500
H141        H  0.37606335  0.39683608  0.30692190     0.12300
H142        H  0.39748569  0.43246450  0.35438060     0.11900
H143        H  0.38132203  0.35412618  0.44158445     0.11300
H144        H  0.35950024  0.31867739  0.39403444     0.11600
H145        H  0.40029541  0.41041293  0.46107876     0.14300
H146        H  0.43647383  0.43985974  0.39354730     0.13100
H147        H  0.35776023  0.33899701  0.28796812     0.10800
H148        H  0.31757575  0.31688370  0.35505946     0.12800
C149        C  0.40178342  0.11366245  0.39600142     0.18900
C150        C  0.38382336  0.13965089  0.40990857    -0.19200
C151        C  0.35916364  0.15217883  0.38930462    -0.11500
C152        C  0.35213372  0.13924345  0.35388712     0.21100
C153        C  0.36997575  0.11311760  0.34009861    -0.20900
C154        C  0.39465964  0.10063141  0.36065836    -0.11700
C155        C  0.32736126  0.15323247  0.32969421    -0.15900
C156        C  0.31748295  0.18532309  0.33141362    -0.29700
C157        C  0.42689796  0.10007579  0.41987985    -0.04000
C158        C  0.43774642  0.06845837  0.41736274    -0.40500
H159        H  0.38858833  0.14993970  0.43717754     0.12300
H160        H  0.34558673  0.17171161  0.40147169     0.11900
H161        H  0.36522628  0.10285311  0.31280915     0.11300
H162        H  0.40824635  0.08118341  0.34836565     0.11600
H163        H  0.31971283  0.13820016  0.30663591     0.14300
H164        H  0.32677030  0.20175651  0.35205954     0.13100
H165        H  0.43411654  0.11492786  0.44331095     0.10800
H166        H  0.42894955  0.05200497  0.39641806     0.12800
C167        C  0.10596500  0.39401989  0.39465580     0.18900
C168        C  0.09744367  0.36568928  0.37497855    -0.19200
C169        C  0.11879507  0.34656025  0.35640250    -0.11500
C170        C  0.14902882  0.35585564  0.35689277     0.21100
C171        C  0.15758282  0.38398567  0.37680540    -0.20900
C172        C  0.13624946  0.40316349  0.39526014    -0.11700
C173        C  0.17235685  0.33708531  0.33692916    -0.15900
C174        C  0.16693820  0.31944239  0.30615027    -0.29700
C175        C  0.08256660  0.41344985  0.41384134    -0.04000
C176        C  0.08809788  0.43310264  0.44298397    -0.40500
H177        H  0.07423037  0.35814869  0.37430019     0.12300
H178        H  0.11156273  0.32441163  0.34220181     0.11900
H179        H  0.18078738  0.39157490  0.37739422     0.11300
H180        H  0.14360450  0.42539661  0.40918087     0.11600
H181        H  0.19524958  0.33986777  0.34645134     0.14300
H182        H  0.14454767  0.31764071  0.29480956     0.13100
H183        H  0.05961415  0.40991466  0.40493901     0.10800
H184        H  0.11052600  0.43572626  0.45393410     0.12800
C185        C  0.40313441  0.38827746  0.10317804     0.18900
C186        C  0.38177011  0.36731249  0.08737355    -0.19200
C187        C  0.35716951  0.35556779  0.10879751    -0.11500
C188        C  0.35358300  0.36420563  0.14689181     0.21100
C189        C  0.37500971  0.38509458  0.16271355    -0.20900
C190        C  0.39958827  0.39686365  0.14127628    -0.11700
C191        C  0.32841380  0.35157043  0.17149210    -0.15900
C192        C  0.31213559  0.32397178  0.16469240    -0.29700
C193        C  0.42819355  0.40115229  0.07859024    -0.04000
C194        C  0.44339108  0.42967043  0.08472218    -0.40500
H195        H  0.38383569  0.36044530  0.05803069     0.12300
H196        H  0.34095911  0.34015018  0.09514256     0.11900
H197        H  0.37295985  0.39197762  0.19205025     0.11300
H198        H  0.41582896  0.41230363  0.15487656     0.11600
H199        H  0.32509992  0.36359135  0.19835357     0.14300
H200        H  0.31626424  0.30986292  0.13949806     0.13100
H201        H  0.43214249  0.38859375  0.05218908     0.10800
H202        H  0.43845179  0.44418359  0.10940344     0.12800
O203        O  0.46746626  0.47767135  0.55490523    -0.80000
O204        O  0.07542181  0.02389315  0.53468854    -0.80000
O205        O  0.03270105  0.43042391  0.53169308    -0.80000
O206        O  0.46867055  0.04379517  0.54836764    -0.79900
O207        O  0.03421512  0.47837554  0.55979117    -0.80100
O208        O  0.42679622  0.02277485  0.52539719    -0.80000
O209        O  0.03131189  0.04419646  0.55246436    -0.80000
O210        O  0.47087501  0.43024977  0.52630459    -0.80000
C211        C  0.46237865  0.44649973  0.55467515     1.09700
C212        C  0.06003596  0.04321281  0.55520792     1.09600
C213        C  0.04018404  0.44712863  0.55994574     1.09700
C214        C  0.43990182  0.04149051  0.54854403     1.09600
O215        O  0.45286445  0.02122594  0.95450786    -0.80000
O216        O  0.06868736  0.46618520  0.99455405    -0.80100
O217        O  0.47648086  0.44737683  0.94628532    -0.80000
O218        O  0.03188676  0.06902698  0.97368613    -0.80000
O219        O  0.05484236  0.02265176  0.96270369    -0.80000
O220        O  0.43872993  0.46290869  0.98176685    -0.80000
O221        O  0.47162209  0.06821733  0.97024394    -0.79900
O222        O  0.03699156  0.44822322  0.95296842    -0.80000
Co223      Co  0.46173783  0.50188704  0.50485367     1.51500
Co224      Co  0.04244881  0.00295819  0.01231629     1.51700
Co225      Co  0.50379248  0.44269705  0.48880927     1.51600
Co226      Co  0.50074759  0.04931781  0.00921388     1.51500
O227        O  0.50314129  0.49521771  0.49069908    -1.41900
C228        C  0.45540592  0.05220454  0.94846343     1.09600
C229        C  0.06348159  0.45062736  0.96471589     1.09700
C230        C  0.44869284  0.44921218  0.95207598     1.09700
C231        C  0.05084540  0.05325010  0.95468143     1.09600
O232        O  0.31615814  0.28956326  0.76846836    -0.80000
O233        O  0.19920200  0.23332022  0.78834100    -0.80000
O234        O  0.21780167  0.30695643  0.79727361    -0.80000
O235        O  0.28174112  0.18543413  0.78022591    -0.79900
O236        O  0.18597892  0.28968041  0.75557553    -0.80100
O237        O  0.30148890  0.23207245  0.79521154    -0.80000
O238        O  0.22157341  0.18631851  0.77842861    -0.80000
O239        O  0.27852119  0.30598850  0.80370815    -0.80000
C240        C  0.30630195  0.30341766  0.79812386     1.09700
C241        C  0.20277627  0.20278571  0.79700190     1.09600
C242        C  0.19130037  0.30500986  0.78552036     1.09700
C243        C  0.29844672  0.20119783  0.80161188     1.09600
O244        O  0.32801935  0.23103928  0.72433176    -0.80000
O245        O  0.22166955  0.27563017  0.68898788    -0.80100
O246        O  0.28420621  0.32399962  0.72360459    -0.80000
O247        O  0.22237525  0.20937931  0.69763579    -0.80000
O248        O  0.17887687  0.23109795  0.71563890    -0.80000
O249        O  0.28749849  0.27678272  0.69467771    -0.80000
O250        O  0.28610017  0.21039865  0.70074805    -0.79900
O251        O  0.22332664  0.32366405  0.71695215    -0.80000
Co252      Co  0.29294848  0.25208856  0.74454144     1.50700
Co253      Co  0.21211753  0.25185629  0.73853622     1.51700
Co254      Co  0.25102306  0.31139634  0.76051968     1.51600
Co255      Co  0.25277571  0.20492192  0.74141511     1.51500
O256        O  0.25162486  0.25887915  0.75863006    -1.41900
C257        C  0.31491256  0.21287825  0.70061814     1.09600
C258        C  0.21632974  0.30700636  0.68841613     1.09700
C259        C  0.29295361  0.30785084  0.69532600     1.09700
C260        C  0.19359449  0.21089833  0.69552638     1.09600
C261        C  0.13838721  0.15221742  0.64896099     0.18900
C262        C  0.10744847  0.15068178  0.64347909    -0.19200
C263        C  0.09524889  0.12537528  0.62202049    -0.11500
C264        C  0.11382818  0.10062717  0.60619201     0.21100
C265        C  0.14469021  0.10197888  0.61208534    -0.20900
C266        C  0.15685689  0.12720991  0.63354291    -0.11700
C267        C  0.10199162  0.07435321  0.58166120    -0.15900
C268        C  0.07365916  0.06368410  0.58411275    -0.29700
C269        C  0.15073795  0.17917621  0.67215066    -0.04000
C270        C  0.17899706  0.18994659  0.66787946    -0.40500
H271        H  0.09274988  0.16946031  0.65525369     0.12300
H272        H  0.07141571  0.12593004  0.61715626     0.11900
H273        H  0.15944548  0.08326594  0.60023822     0.11300
H274        H  0.18070870  0.12661513  0.63841208     0.11600
H275        H  0.11676760  0.06433028  0.56017849     0.14300
H276        H  0.05880610  0.07301417  0.60582001     0.13100
H277        H  0.13658332  0.18955640  0.69403077     0.10800
H278        H  0.19316391  0.18022468  0.64567498     0.12800
C279        C  0.15025532  0.14163556  0.85301317     0.18900
C280        C  0.13213393  0.11554905  0.84072818    -0.19200
C281        C  0.10853645  0.10294788  0.86343340    -0.11500
C282        C  0.10279857  0.11578537  0.89944615     0.21100
C283        C  0.12080631  0.14205476  0.91163352    -0.20900
C284        C  0.14437124  0.15473317  0.88885820    -0.11700
C285        C  0.07888938  0.10180369  0.92537665    -0.15900
C286        C  0.06949608  0.06960627  0.92443200    -0.29700
C287        C  0.17457246  0.15496591  0.82738900    -0.04000
C288        C  0.18370389  0.18727340  0.82734025    -0.40500
H289        H  0.13596056  0.10521183  0.81313411     0.12300
H290        H  0.09471693  0.08338050  0.85243333     0.11900
H291        H  0.11701548  0.15235215  0.93924607     0.11300
H292        H  0.15817944  0.17436478  0.89972388     0.11600
H293        H  0.07114837  0.11713199  0.94835710     0.14300
H294        H  0.07923218  0.05295044  0.90398780     0.13100
H295        H  0.18280991  0.13896419  0.80525632     0.10800
H296        H  0.17350543  0.20444670  0.84689307     0.12800
C297        C  0.10345323  0.39062300  0.60375489     0.18900
C298        C  0.11617586  0.35937759  0.59446539    -0.19200
C299        C  0.14178522  0.34652278  0.61300331    -0.11500
C300        C  0.15556258  0.36482530  0.64131909     0.21100
C301        C  0.14297051  0.39618224  0.65036711    -0.20900
C302        C  0.11736739  0.40901168  0.63185859    -0.11700
C303        C  0.18143023  0.35143899  0.66432250    -0.15900
C304        C  0.19697271  0.32266788  0.65826170    -0.29700
C305        C  0.07709031  0.40377930  0.58151729    -0.04000
C306        C  0.06078730  0.43176388  0.58891876    -0.40500
H307        H  0.10618878  0.34470673  0.57271682     0.12300
H308        H  0.15020106  0.32208419  0.60534134     0.11900
H309        H  0.15292887  0.41086615  0.67213686     0.11300
H310        H  0.10895631  0.43347057  0.63950394     0.11600
H311        H  0.18654331  0.36504916  0.68956626     0.14300
H312        H  0.19260666  0.30807020  0.63366097     0.13100
H313        H  0.07196543  0.39054553  0.55602479     0.10800
H314        H  0.06516385  0.44596023  0.61383696     0.12800
C315        C  0.36748918  0.15275987  0.64906855     0.18900
C316        C  0.38410731  0.12464085  0.66297656    -0.19200
C317        C  0.39398916  0.09985321  0.63858840    -0.11500
C318        C  0.38787301  0.10285548  0.59934028     0.21100
C319        C  0.37131678  0.13102833  0.58540197    -0.20900
C320        C  0.36140888  0.15581810  0.60981095    -0.11700
C321        C  0.39919254  0.07790436  0.57196599    -0.15900
C322        C  0.42375189  0.05883502  0.57870343    -0.29700
C323        C  0.35595290  0.17743252  0.67659824    -0.04000
C324        C  0.33124599  0.19629104  0.67005684    -0.40500
H325        H  0.38893757  0.12143882  0.69305149     0.12300
H326        H  0.40599294  0.07818653  0.65084430     0.11900
H327        H  0.36646323  0.13419803  0.55533379     0.11300
H328        H  0.34933638  0.17745033  0.59761839     0.11600
H329        H  0.38929143  0.07812983  0.54382258     0.14300
H330        H  0.43581885  0.06104166  0.60506299     0.13100
H331        H  0.36573158  0.17696370  0.70481662     0.10800
H332        H  0.31929753  0.19438314  0.64356275     0.12800
C333        C  0.36599624  0.35418398  0.84751092     0.18900
C334        C  0.37842148  0.38559007  0.83643508    -0.19200
C335        C  0.39055540  0.40627721  0.86349794    -0.11500
C336        C  0.39104548  0.39564152  0.90228193     0.21100
C337        C  0.37876267  0.36412252  0.91328762    -0.20900
C338        C  0.36655375  0.34348277  0.88623527    -0.11700
C339        C  0.40535631  0.41608407  0.93156956    -0.15900
C340        C  0.42915610  0.43554057  0.92314021    -0.29700
C341        C  0.35107550  0.33406890  0.81851603    -0.04000
C342        C  0.32604400  0.31677062  0.82700591    -0.40500
H343        H  0.37801567  0.39454535  0.80687742     0.12300
H344        H  0.39920042  0.43073429  0.85397894     0.11900
H345        H  0.37908314  0.35517533  0.94285724     0.11300
H346        H  0.35766598  0.31910671  0.89567511     0.11600
H347        H  0.39883021  0.41171463  0.96119769     0.14300
H348        H  0.43785780  0.43687659  0.89424598     0.13100
H349        H  0.35821701  0.33721520  0.78898354     0.10800
H350        H  0.31700259  0.31688736  0.85571758     0.12800
C351        C  0.40019775  0.11317610  0.89778154     0.18900
C352        C  0.38000700  0.13656254  0.91265032    -0.19200
C353        C  0.35588483  0.14911357  0.89104330    -0.11500
C354        C  0.35162167  0.13876642  0.85377398     0.21100
C355        C  0.37172577  0.11528579  0.83895350    -0.20900
C356        C  0.39589657  0.10280505  0.86050940    -0.11700
C357        C  0.32722929  0.15275551  0.82904029    -0.15900
C358        C  0.31623714  0.18425294  0.83207418    -0.29700
C359        C  0.42481134  0.09954953  0.92241955    -0.04000
C360        C  0.43742717  0.06898793  0.91815131    -0.40500
H361        H  0.38263967  0.14477909  0.94135656     0.12300
H362        H  0.34050216  0.16659831  0.90378587     0.11900
H363        H  0.36909435  0.10711034  0.81023001     0.11300
H364        H  0.41129683  0.08546555  0.84760370     0.11600
H365        H  0.32090264  0.13853466  0.80468715     0.14300
H366        H  0.32452757  0.20010283  0.85396079     0.13100
H367        H  0.43020662  0.11320907  0.94754842     0.10800
H368        H  0.43027837  0.05336662  0.89544809     0.12800
C369        C  0.10618826  0.39638612  0.89513619     0.18900
C370        C  0.09744702  0.36877040  0.87440823    -0.19200
C371        C  0.11864237  0.34977710  0.85536850    -0.11500
C372        C  0.14901079  0.35848708  0.85633817     0.21100
C373        C  0.15777797  0.38597227  0.87727107    -0.20900
C374        C  0.13658117  0.40496944  0.89631872    -0.11700
C375        C  0.17229212  0.33956586  0.83620241    -0.15900
C376        C  0.16679481  0.32109409  0.80601221    -0.29700
C377        C  0.08281750  0.41567673  0.91463558    -0.04000
C378        C  0.08812294  0.43446375  0.94460200    -0.40500
H379        H  0.07414944  0.36164390  0.87327909     0.12300
H380        H  0.11111933  0.32813467  0.84048273     0.11900
H381        H  0.18107276  0.39312212  0.87836065     0.11300
H382        H  0.14410521  0.42661578  0.91117843     0.11600
H383        H  0.19523840  0.34253033  0.84542408     0.14300
H384        H  0.14438749  0.31898819  0.79485878     0.13100
H385        H  0.05994400  0.41271165  0.90514739     0.10800
H386        H  0.11044532  0.43661381  0.95601046     0.12800
C387        C  0.40214198  0.38994332  0.60301477     0.18900
C388        C  0.37914655  0.37131564  0.58712916    -0.19200
C389        C  0.35554152  0.35856204  0.60964287    -0.11500
C390        C  0.35460484  0.36378870  0.64886713     0.21100
C391        C  0.37758529  0.38248966  0.66477982    -0.20900
C392        C  0.40117830  0.39533641  0.64221058    -0.11700
C393        C  0.33022481  0.35026542  0.67415970    -0.15900
C394        C  0.31299379  0.32368197  0.66622679    -0.29700
C395        C  0.42649470  0.40322255  0.57757453    -0.04000
C396        C  0.44297748  0.43061831  0.58449577    -0.40500
H397        H  0.37923194  0.36696647  0.55695665     0.12300
H398        H  0.33796886  0.34505863  0.59602592     0.11900
H399        H  0.37748448  0.38683102  0.69493129     0.11300
H400        H  0.41874256  0.40897011  0.65568731     0.11600
H401        H  0.32800181  0.36094149  0.70193620     0.14300
H402        H  0.31629871  0.31061763  0.64011579     0.13100
H403        H  0.42901471  0.39183831  0.55020882     0.10800
H404        H  0.43930139  0.44422326  0.61018134     0.12800
O405        O  0.46732214  0.97767821  0.05537878    -0.80000
O406        O  0.07444093  0.52445474  0.03597747    -0.80000
O407        O  0.03261688  0.93036091  0.03261149    -0.80000
O408        O  0.46800392  0.54273125  0.04878234    -0.79900
O409        O  0.03378251  0.97791563  0.06149020    -0.80100
O410        O  0.42631420  0.52212143  0.02487837    -0.80000
O411        O  0.03027158  0.54452170  0.05395420    -0.80000
O412        O  0.47125375  0.93010417  0.02724156    -0.80000
C413        C  0.46253780  0.94646718  0.05540725     1.09700
C414        C  0.05901334  0.54370674  0.05650457     1.09600
C415        C  0.03984035  0.94670890  0.06122587     1.09700
C416        C  0.43923776  0.54061742  0.04840786     1.09600
O417        O  0.45306634  0.52155162  0.45412072    -0.80000
O418        O  0.06925242  0.96549349  0.49312275    -0.80100
O419        O  0.47640508  0.94781632  0.44616348    -0.80000
O420        O  0.03242943  0.56817359  0.47024138    -0.80000
O421        O  0.05543159  0.52160925  0.46031496    -0.80000
O422        O  0.43884953  0.96372351  0.48179344    -0.80000
O423        O  0.47310218  0.56831350  0.46831579    -0.79900
O424        O  0.03739929  0.94742039  0.45172454    -0.80000
Co425      Co  0.46137088  0.00168009  0.00530986     1.51500
Co426      Co  0.04296229  0.50275442  0.51027800     1.51700
Co427      Co  0.50390002  0.94295944  0.98956803     1.51600
Co428      Co  0.50172342  0.54921669  0.50770989     1.51500
O429        O  0.50277487  0.99550546  0.99141405    -1.41900
C430        C  0.45628920  0.55234369  0.44724852     1.09600
C431        C  0.06392533  0.94981186  0.46339325     1.09700
C432        C  0.44864382  0.95002236  0.45199797     1.09700
C433        C  0.05130634  0.55203195  0.45150530     1.09600
O434        O  0.31665062  0.78991574  0.26680432    -0.80000
O435        O  0.19996167  0.73239339  0.28722262    -0.80000
O436        O  0.21844394  0.80621503  0.29653909    -0.80000
O437        O  0.28288329  0.68539453  0.27865730    -0.79900
O438        O  0.18659503  0.78889494  0.25488998    -0.80100
O439        O  0.30233948  0.73216458  0.29384247    -0.80000
O440        O  0.22267246  0.68564373  0.27705627    -0.80000
O441        O  0.27918629  0.80595507  0.30247822    -0.80000
C442        C  0.30694663  0.80367228  0.29659617     1.09700
C443        C  0.20370139  0.70183263  0.29563873     1.09600
C444        C  0.19192903  0.80409961  0.28489511     1.09700
C445        C  0.29953922  0.70122842  0.30006248     1.09600
O446        O  0.32857127  0.73143452  0.22283647    -0.80000
O447        O  0.22218320  0.77534832  0.18807744    -0.80100
O448        O  0.28416094  0.82387904  0.22211118    -0.80000
O449        O  0.22298860  0.70895775  0.19645612    -0.80000
O450        O  0.17955200  0.73082241  0.21464334    -0.80000
O451        O  0.28740864  0.77655156  0.19343846    -0.80000
O452        O  0.28675235  0.71056878  0.19925977    -0.79900
O453        O  0.22340253  0.82325688  0.21626021    -0.80000
Co454      Co  0.29346453  0.75213472  0.24328595     1.50700
Co455      Co  0.21279144  0.75131529  0.23754106     1.51700
Co456      Co  0.25139140  0.81107972  0.25951602     1.51600
Co457      Co  0.25362325  0.70470212  0.24006229     1.51500
O458        O  0.25221009  0.75855388  0.25762936    -1.41900
C459        C  0.31554327  0.71319924  0.19914626     1.09600
C460        C  0.21651510  0.80664272  0.18766282     1.09700
C461        C  0.29254048  0.80768571  0.19369061     1.09700
C462        C  0.19421349  0.71082668  0.19425004     1.09600
C463        C  0.13845765  0.65326827  0.14736765     0.18900
C464        C  0.10739080  0.65141867  0.14329868    -0.19200
C465        C  0.09479690  0.62612549  0.12222523    -0.11500
C466        C  0.11314725  0.60176307  0.10535909     0.21100
C467        C  0.14414418  0.60352189  0.10965599    -0.20900
C468        C  0.15670214  0.62870385  0.13075436    -0.11700
C469        C  0.10091423  0.57540787  0.08140757    -0.15900
C470        C  0.07278291  0.56433699  0.08502490    -0.29700
C471        C  0.15115788  0.67991198  0.17062419    -0.04000
C472        C  0.17946455  0.69045595  0.16626064    -0.40500
H473        H  0.09287680  0.66985876  0.15601116     0.12300
H474        H  0.07082875  0.62634882  0.11854746     0.11900
H475        H  0.15870487  0.58509736  0.09693515     0.11300
H476        H  0.18068033  0.62829553  0.13449861     0.11600
H477        H  0.11524895  0.56560611  0.05932509     0.14300
H478        H  0.05826356  0.57345125  0.10719215     0.13100
H479        H  0.13724340  0.69010401  0.19286728     0.10800
H480        H  0.19349801  0.68098866  0.14378952     0.12800
C481        C  0.15086133  0.64004602  0.35009559     0.18900
C482        C  0.13307111  0.61377118  0.33749589    -0.19200
C483        C  0.10923584  0.60106124  0.35975165    -0.11500
C484        C  0.10288550  0.61412171  0.39549240     0.21100
C485        C  0.12061204  0.64046118  0.40801081    -0.20900
C486        C  0.14445764  0.65312407  0.38580544    -0.11700
C487        C  0.07866209  0.60033597  0.42095880    -0.15900
C488        C  0.06985825  0.56790714  0.42085496    -0.29700
C489        C  0.17534407  0.65367969  0.32493452    -0.04000
C490        C  0.18457577  0.68592678  0.32562981    -0.40500
H491        H  0.13733950  0.60338418  0.31003552     0.12300
H492        H  0.09569904  0.58129762  0.34866117     0.11900
H493        H  0.11637672  0.65083780  0.43549586     0.11300
H494        H  0.15803094  0.67279541  0.39702346     0.11600
H495        H  0.07036390  0.61606728  0.44331067     0.14300
H496        H  0.08009116  0.55096213  0.40109105     0.13100
H497        H  0.18366316  0.63801100  0.30254455     0.10800
H498        H  0.17433261  0.70286312  0.34539720     0.12800
C499        C  0.10267313  0.88965078  0.10479918     0.18900
C500        C  0.11443998  0.85763410  0.09676153    -0.19200
C501        C  0.14032693  0.84493179  0.11478058    -0.11500
C502        C  0.15534781  0.86418097  0.14122286     0.21100
C503        C  0.14368687  0.89627628  0.14902967    -0.20900
C504        C  0.11781464  0.90895235  0.13104497    -0.11700
C505        C  0.18150619  0.85103237  0.16379027    -0.15900
C506        C  0.19688060  0.82215886  0.15772978    -0.29700
C507        C  0.07614239  0.90274048  0.08289967    -0.04000
C508        C  0.06026008  0.93104068  0.09020052    -0.40500
H509        H  0.10348866  0.84226224  0.07642312     0.12300
H510        H  0.14796894  0.81986020  0.10830449     0.11900
H511        H  0.15461739  0.91167839  0.16937367     0.11300
H512        H  0.11019563  0.93405088  0.13750414     0.11600
H513        H  0.18703322  0.86495386  0.18866226     0.14300
H514        H  0.19219809  0.80743312  0.13331125     0.13100
H515        H  0.07061368  0.88926705  0.05771938     0.10800
H516        H  0.06494759  0.94525356  0.11502262     0.12800
C517        C  0.36829211  0.65332918  0.14804276     0.18900
C518        C  0.38392622  0.62457420  0.16214309    -0.19200
C519        C  0.39354013  0.59968254  0.13775547    -0.11500
C520        C  0.38819067  0.60327224  0.09834233     0.21100
C521        C  0.37269832  0.63215733  0.08422481    -0.20900
C522        C  0.36300884  0.65701191  0.10864755    -0.11700
C523        C  0.39926805  0.57821896  0.07097739    -0.15900
C524        C  0.42284287  0.55778300  0.07841741    -0.29700
C525        C  0.35675437  0.67801966  0.17544307    -0.04000
C526        C  0.33197154  0.69665619  0.16870852    -0.40500
H527        H  0.38810183  0.62093096  0.19234898     0.12300
H528        H  0.40469189  0.57749838  0.15014912     0.11900
H529        H  0.36847423  0.63579145  0.05403553     0.11300
H530        H  0.35169497  0.67916886  0.09643209     0.11600
H531        H  0.39019496  0.57945340  0.04235420     0.14300
H532        H  0.43428506  0.55884226  0.10536949     0.13100
H533        H  0.36644604  0.67760511  0.20370845     0.10800
H534        H  0.32009602  0.69452150  0.14218014     0.12800
C535        C  0.36648072  0.85496778  0.34604448     0.18900
C536        C  0.37801572  0.88700787  0.33577105    -0.19200
C537        C  0.39045305  0.90712536  0.36319729    -0.11500
C538        C  0.39217687  0.89528805  0.40154129     0.21100
C539        C  0.38084045  0.86310268  0.41170443    -0.20900
C540        C  0.36827673  0.84306626  0.38430510    -0.11700
C541        C  0.40651817  0.91526107  0.43129042    -0.15900
C542        C  0.42888419  0.93686245  0.42295924    -0.29700
C543        C  0.35134200  0.83529794  0.31677098    -0.04000
C544        C  0.32684294  0.81703882  0.32539107    -0.40500
H545        H  0.37666967  0.89688401  0.30659082     0.12300
H546        H  0.39828743  0.93208695  0.35429624     0.11900
H547        H  0.38208104  0.85322148  0.44088977     0.11300
H548        H  0.36008807  0.81820361  0.39310060     0.11600
H549        H  0.40123788  0.90903640  0.46099038     0.14300
H550        H  0.43665139  0.94026227  0.39377507     0.13100
H551        H  0.35789625  0.83939278  0.28712159     0.10800
H552        H  0.31829642  0.81621685  0.35437156     0.12800
C553        C  0.40233164  0.61386461  0.39528221     0.18900
C554        C  0.38251851  0.63771444  0.40998895    -0.19200
C555        C  0.35819140  0.65005496  0.38863271    -0.11500
C556        C  0.35339403  0.63912931  0.35169664     0.21100
C557        C  0.37315671  0.61519500  0.33703193    -0.20900
C558        C  0.39748714  0.60284524  0.35839624    -0.11700
C559        C  0.32882370  0.65297858  0.32711289    -0.15900
C560        C  0.31755229  0.68433990  0.33033476    -0.29700
C561        C  0.42702970  0.60027552  0.41978786    -0.04000
C562        C  0.43848291  0.56900069  0.41666448    -0.40500
H563        H  0.38555817  0.64638901  0.43842979     0.12300
H564        H  0.34308562  0.66783540  0.40136253     0.11900
H565        H  0.37011933  0.60653095  0.30858444     0.11300
H566        H  0.41259752  0.58506088  0.34567802     0.11600
H567        H  0.32249956  0.63875505  0.30277258     0.14300
H568        H  0.32574749  0.70024237  0.35222082     0.13100
H569        H  0.43325326  0.61459019  0.44410760     0.10800
H570        H  0.43038904  0.55295794  0.39485041     0.12800
C571        C  0.10666114  0.89448968  0.39480648     0.18900
C572        C  0.09787692  0.86722853  0.37353093    -0.19200
C573        C  0.11909349  0.84809325  0.35472159    -0.11500
C574        C  0.14953855  0.85627904  0.35653242     0.21100
C575        C  0.15837444  0.88332309  0.37805988    -0.20900
C576        C  0.13716107  0.90249862  0.39681432    -0.11700
C577        C  0.17280516  0.83735739  0.33648657    -0.15900
C578        C  0.16742246  0.81994527  0.30548697    -0.29700
C579        C  0.08323192  0.91396257  0.41404057    -0.04000
C580        C  0.08852254  0.93343181  0.44343872    -0.40500
H581        H  0.07451361  0.86050928  0.37174424     0.12300
H582        H  0.11152900  0.82676577  0.33934833     0.11900
H583        H  0.18174055  0.89005282  0.37976758     0.11300
H584        H  0.14482680  0.92383924  0.41206616     0.11600
H585        H  0.19564671  0.83956573  0.34639118     0.14300
H586        H  0.14512670  0.81857779  0.29378246     0.13100
H587        H  0.06033112  0.91069348  0.40478014     0.10800
H588        H  0.11084737  0.93598668  0.45470399     0.12800
C589        C  0.40284540  0.88916854  0.10358357     0.18900
C590        C  0.38381522  0.86502405  0.08881114    -0.19200
C591        C  0.35902089  0.85295295  0.10956507    -0.11500
C592        C  0.35281811  0.86456497  0.14599817     0.21100
C593        C  0.37184714  0.88872940  0.16075497    -0.20900
C594        C  0.39663641  0.90080095  0.13999711    -0.11700
C595        C  0.32757766  0.85162695  0.17026358    -0.15900
C596        C  0.31204478  0.82338622  0.16397101    -0.29700
C597        C  0.42818410  0.90200395  0.07944851    -0.04000
C598        C  0.44298711  0.93085505  0.08513258    -0.40500
H599        H  0.38790521  0.85574835  0.06075184     0.12300
H600        H  0.34482825  0.83484565  0.09660397     0.11900
H601        H  0.36778476  0.89798918  0.18882240     0.11300
H602        H  0.41089486  0.91885511  0.15296674     0.11600
H603        H  0.32341772  0.86429940  0.19654827     0.14300
H604        H  0.31657450  0.80884214  0.13924096     0.13100
H605        H  0.43292812  0.88877083  0.05367978     0.10800
H606        H  0.43772315  0.94589010  0.10925943     0.12800
O607        O  0.46788577  0.97749523  0.55520357    -0.80000
O608        O  0.07595431  0.52417534  0.53329517    -0.80000
O609        O  0.03266657  0.93009786  0.53151804    -0.80000
O610        O  0.46824683  0.54403888  0.54806691    -0.79900
O611        O  0.03374045  0.97770384  0.56029181    -0.80100
O612        O  0.42649652  0.52290283  0.52482076    -0.80000
O613        O  0.03200611  0.54488751  0.55114446    -0.80000
O614        O  0.47143515  0.93004874  0.52669572    -0.80000
C615        C  0.46285272  0.94631137  0.55502258     1.09700
C616        C  0.06073044  0.54363832  0.55382486     1.09600
C617        C  0.03989923  0.94652984  0.56006594     1.09700
C618        C  0.43946625  0.54161035  0.54807417     1.09600
O619        O  0.45308704  0.52048149  0.95412053    -0.80000
O620        O  0.06908382  0.96611461  0.99422268    -0.80100
O621        O  0.47603670  0.94778482  0.94670251    -0.80000
O622        O  0.03181363  0.56911147  0.97357795    -0.80000
O623        O  0.05461656  0.52261106  0.96283137    -0.80000
O624        O  0.43841285  0.96350855  0.98223462    -0.80000
O625        O  0.47187838  0.56760298  0.96923170    -0.79900
O626        O  0.03723420  0.94811249  0.95283333    -0.80000
Co627      Co  0.46196667  0.00166550  0.50519319     1.51500
Co628      Co  0.04190866  0.50308292  0.01239844     1.51700
Co629      Co  0.50422140  0.94271790  0.48904435     1.51600
Co630      Co  0.50105087  0.54891826  0.00823241     1.51500
O631        O  0.50335077  0.99522856  0.49084289    -1.41900
C632        C  0.45558312  0.55142049  0.94773177     1.09600
C633        C  0.06376862  0.95060151  0.96440192     1.09700
C634        C  0.44826749  0.94970295  0.95257196     1.09700
C635        C  0.05079411  0.55321774  0.95472103     1.09600
O636        O  0.31621042  0.78996618  0.76783350    -0.80000
O637        O  0.19947053  0.73327133  0.78873655    -0.80000
O638        O  0.21799735  0.80698059  0.79726748    -0.80000
O639        O  0.28228060  0.68572173  0.78024384    -0.79900
O640        O  0.18604635  0.78949209  0.75584669    -0.80100
O641        O  0.30201961  0.73251601  0.79463265    -0.80000
O642        O  0.22213076  0.68637236  0.77915127    -0.80000
O643        O  0.27865971  0.80628426  0.80328791    -0.80000
C644        C  0.30641675  0.80366059  0.79763326     1.09700
C645        C  0.20327336  0.70281793  0.79765224     1.09600
C646        C  0.19144605  0.80480886  0.78577116     1.09700
C647        C  0.29910856  0.70166721  0.80130016     1.09600
O648        O  0.32798858  0.73145313  0.72339246    -0.80000
O649        O  0.22148510  0.77534789  0.68909370    -0.80100
O650        O  0.28404145  0.82419159  0.72303952    -0.80000
O651        O  0.22233167  0.70902556  0.69818387    -0.80000
O652        O  0.17884580  0.73077718  0.71616350    -0.80000
O653        O  0.28710963  0.77693351  0.69423235    -0.80000
O654        O  0.28593860  0.71049158  0.70052687    -0.79900
O655        O  0.22316342  0.82348191  0.71688531    -0.80000
Co656      Co  0.29300709  0.75236524  0.74404714     1.50700
Co657      Co  0.21217257  0.75169324  0.73877735     1.51700
Co658      Co  0.25103442  0.81149481  0.76026871     1.51600
Co659      Co  0.25299224  0.70494756  0.74166657     1.51500
O660        O  0.25175664  0.75895885  0.75859739    -1.41900
C661        C  0.31472435  0.71320731  0.69988906     1.09600
C662        C  0.21613530  0.80672553  0.68844644     1.09700
C663        C  0.29264280  0.80798334  0.69472655     1.09700
C664        C  0.19355606  0.71052430  0.69610590     1.09600
C665        C  0.13850080  0.65202937  0.64898222     0.18900
C666        C  0.10782281  0.65139896  0.64140919    -0.19200
C667        C  0.09594372  0.62608147  0.61969235    -0.11500
C668        C  0.11453279  0.60041084  0.60573139     0.21100
C669        C  0.14511800  0.60083786  0.61375446    -0.20900
C670        C  0.15697092  0.62610211  0.63546766    -0.11700
C671        C  0.10295328  0.57409559  0.58103716    -0.15900
C672        C  0.07443727  0.56398487  0.58280307    -0.29700
C673        C  0.15060270  0.67912997  0.67217317    -0.04000
C674        C  0.17902962  0.68944259  0.66850710    -0.40500
H675        H  0.09312892  0.67090821  0.65168086     0.12300
H676        H  0.07237276  0.62731328  0.61312461     0.11900
H677        H  0.15987184  0.58140113  0.60337626     0.11300
H678        H  0.18056705  0.62490131  0.64199780     0.11600
H679        H  0.11799422  0.56364856  0.56013767     0.14300
H680        H  0.05946763  0.57374843  0.60414096     0.13100
H681        H  0.13614697  0.69000751  0.69340199     0.10800
H682        H  0.19337613  0.67919193  0.64678719     0.12800
C683        C  0.15058788  0.64171365  0.85349120     0.18900
C684        C  0.13290917  0.61519700  0.84129179    -0.19200
C685        C  0.10919839  0.60250280  0.86375442    -0.11500
C686        C  0.10285964  0.61572211  0.89942491     0.21100
C687        C  0.12040756  0.64242507  0.91150632    -0.20900
C688        C  0.14410781  0.65516219  0.88900417    -0.11700
C689        C  0.07878826  0.60175536  0.92514476    -0.15900
C690        C  0.06967280  0.56942706  0.92456347    -0.29700
C691        C  0.17505330  0.65506446  0.82807519    -0.04000
C692        C  0.18431523  0.68732826  0.82813205    -0.40500
H693        H  0.13718390  0.60456536  0.81395926     0.12300
H694        H  0.09576174  0.58256941  0.85282521     0.11900
H695        H  0.11615577  0.65302528  0.93886146     0.11300
H696        H  0.15754215  0.67512286  0.89986289     0.11600
H697        H  0.07065532  0.61729655  0.94774129     0.14300
H698        H  0.07972846  0.55263377  0.90450898     0.13100
H699        H  0.18330512  0.63909783  0.80592163     0.10800
H700        H  0.17417734  0.70453087  0.84768273     0.12800
C701        C  0.10365008  0.89047374  0.60318136     0.18900
C702        C  0.11711671  0.85991750  0.59288004    -0.19200
C703        C  0.14252080  0.84693538  0.61174108    -0.11500
C704        C  0.15532377  0.86443299  0.64140772     0.21100
C705        C  0.14201199  0.89514048  0.65143985    -0.20900
C706        C  0.11661072  0.90809087  0.63261053    -0.11700
C707        C  0.18101493  0.85090736  0.66458681    -0.15900
C708        C  0.19678575  0.82234445  0.65830471    -0.29700
C709        C  0.07747268  0.90375906  0.58074699    -0.04000
C710        C  0.06047472  0.93100809  0.58891674    -0.40500
H711        H  0.10787163  0.84588147  0.57009206     0.12300
H712        H  0.15157039  0.82306334  0.60317143     0.11900
H713        H  0.15123757  0.90920876  0.67421876     0.11300
H714        H  0.10760016  0.93203064  0.64108713     0.11600
H715        H  0.18581012  0.86422773  0.69013178     0.14300
H716        H  0.19266594  0.80788545  0.63353241     0.13100
H717        H  0.07303258  0.89126554  0.55455051     0.10800
H718        H  0.06420425  0.94456431  0.61447307     0.12800
C719        C  0.36617952  0.65218331  0.64809141     0.18900
C720        C  0.38255778  0.62392885  0.66212154    -0.19200
C721        C  0.39235530  0.59903585  0.63784551    -0.11500
C722        C  0.38640468  0.60204597  0.59857541     0.21100
C723        C  0.36987382  0.63020242  0.58451735    -0.20900
C724        C  0.36003230  0.65511885  0.60883516    -0.11700
C725        C  0.39805843  0.57717299  0.57134570    -0.15900
C726        C  0.42308017  0.55889144  0.57808730    -0.29700
C727        C  0.35508515  0.67713913  0.67557330    -0.04000
C728        C  0.33081072  0.69670517  0.66906119    -0.40500
H729        H  0.38737371  0.62077112  0.69221112     0.12300
H730        H  0.40428338  0.57732970  0.65015229     0.11900
H731        H  0.36510174  0.63332308  0.55442835     0.11300
H732        H  0.34805163  0.67677876  0.59655765     0.11600
H733        H  0.38806151  0.57694732  0.54328643     0.14300
H734        H  0.43515993  0.56167656  0.60434108     0.13100
H735        H  0.36479669  0.67632269  0.70385146     0.10800
H736        H  0.31884589  0.69527550  0.64251425     0.12800
C737        C  0.36484340  0.85564323  0.84778748     0.18900
C738        C  0.37691980  0.88733229  0.83714829    -0.19200
C739        C  0.38920573  0.90768997  0.86440823    -0.11500
C740        C  0.39016112  0.89649731  0.90298756     0.21100
C741        C  0.37806949  0.86479675  0.91363753    -0.20900
C742        C  0.36575004  0.84443984  0.88636749    -0.11700
C743        C  0.40479887  0.91658623  0.93233857    -0.15900
C744        C  0.42859954  0.93602309  0.92377353    -0.29700
C745        C  0.35020436  0.83568577  0.81837629    -0.04000
C746        C  0.32618712  0.81658674  0.82673758    -0.40500
H747        H  0.37625378  0.89670111  0.80773605     0.12300
H748        H  0.39767618  0.93231528  0.85520169     0.11900
H749        H  0.37872726  0.85544200  0.94304982     0.11300
H750        H  0.35720784  0.81984394  0.89554402     0.11600
H751        H  0.39845757  0.91205105  0.96199710     0.14300
H752        H  0.43711631  0.93746179  0.89479266     0.13100
H753        H  0.35662956  0.84026674  0.78874038     0.10800
H754        H  0.31759220  0.81510783  0.85568015     0.12800
C755        C  0.40146545  0.61321952  0.89615351     0.18900
C756        C  0.38301825  0.63860204  0.91044739    -0.19200
C757        C  0.35850418  0.65126078  0.88965903    -0.11500
C758        C  0.35210957  0.63905854  0.85369901     0.21100
C759        C  0.37050824  0.61362667  0.83944037    -0.20900
C760        C  0.39504868  0.60099852  0.86019980    -0.11700
C761        C  0.32732049  0.65304902  0.82956667    -0.15900
C762        C  0.31722690  0.68501971  0.83165196    -0.29700
C763        C  0.42637111  0.59943089  0.92022774    -0.04000
C764        C  0.43742732  0.56793672  0.91737567    -0.40500
H765        H  0.38727245  0.64827709  0.93816227     0.12300
H766        H  0.34449894  0.67027469  0.90210141     0.11900
H767        H  0.36625249  0.60397244  0.81171066     0.11300
H768        H  0.40905588  0.58204719  0.84767229     0.11600
H769        H  0.31986455  0.63819191  0.80624911     0.14300
H770        H  0.32642530  0.70132807  0.85248805     0.13100
H771        H  0.43324511  0.61400607  0.94405907     0.10800
H772        H  0.42895581  0.55171564  0.89599014     0.12800
C773        C  0.10644053  0.89629991  0.89498799     0.18900
C774        C  0.09760819  0.86874751  0.87423166    -0.19200
C775        C  0.11879068  0.84937206  0.85567271    -0.11500
C776        C  0.14923616  0.85765220  0.85714130     0.21100
C777        C  0.15810439  0.88499943  0.87821284    -0.20900
C778        C  0.13692149  0.90438308  0.89677122    -0.11700
C779        C  0.17246475  0.83861729  0.83708483    -0.15900
C780        C  0.16696358  0.82061199  0.80653807    -0.29700
C781        C  0.08309944  0.91593913  0.91407394    -0.04000
C782        C  0.08836883  0.93448927  0.94422050    -0.40500
H783        H  0.07424360  0.86197444  0.87269815     0.12300
H784        H  0.11118648  0.82782420  0.84069260     0.11900
H785        H  0.18145820  0.89181047  0.87968215     0.11300
H786        H  0.14454162  0.92594975  0.91168755     0.11600
H787        H  0.19538955  0.84128716  0.84651250     0.14300
H788        H  0.14457503  0.81877075  0.79524349     0.13100
H789        H  0.06026820  0.91328742  0.90428802     0.10800
H790        H  0.11063913  0.93634317  0.95587858     0.12800
C791        C  0.40281729  0.88930621  0.60339496     0.18900
C792        C  0.38163496  0.86797880  0.58781322    -0.19200
C793        C  0.35732937  0.85577417  0.60946716    -0.11500
C794        C  0.35381736  0.86431276  0.64759364     0.21100
C795        C  0.37502139  0.88562543  0.66321222    -0.20900
C796        C  0.39932403  0.89787556  0.64152256    -0.11700
C797        C  0.32879459  0.85134455  0.67226648    -0.15900
C798        C  0.31272820  0.82356105  0.66546469    -0.29700
C799        C  0.42771155  0.90232187  0.57856223    -0.04000
C800        C  0.44331624  0.93054175  0.58479322    -0.40500
H801        H  0.38363714  0.86111101  0.55845826     0.12300
H802        H  0.34125717  0.84008857  0.59594117     0.11900
H803        H  0.37299898  0.89249965  0.69254841     0.11300
H804        H  0.41538970  0.91363089  0.65495862     0.11600
H805        H  0.32522131  0.86350422  0.69898787     0.14300
H806        H  0.31713045  0.80934941  0.64041827     0.13100
H807        H  0.43137794  0.88992310  0.55199206     0.10800
H808        H  0.43876396  0.94492863  0.60967726     0.12800
O809        O  0.96701766  0.47740038  0.05583354    -0.80000
O810        O  0.57485567  0.02447932  0.03480730    -0.80000
O811        O  0.53253039  0.43044291  0.03199744    -0.80000
O812        O  0.96788807  0.04259190  0.05064426    -0.79900
O813        O  0.53370237  0.47816493  0.06061076    -0.80100
O814        O  0.92629520  0.02200265  0.02648418    -0.80000
O815        O  0.53092568  0.04490962  0.05319113    -0.80000
O816        O  0.97116837  0.42999637  0.02730416    -0.80000
C817        C  0.96236100  0.44615674  0.05559219     1.09700
C818        C  0.55969368  0.04380128  0.05552370     1.09600
C819        C  0.53977670  0.44694728  0.06048701     1.09700
C820        C  0.93912767  0.04035856  0.05021741     1.09600
O821        O  0.95322613  0.02084215  0.45411632    -0.80000
O822        O  0.56887218  0.46481152  0.49341742    -0.80100
O823        O  0.97632249  0.44727498  0.44615299    -0.80000
O824        O  0.53288986  0.06825737  0.47084587    -0.80000
O825        O  0.55554830  0.02150404  0.46080770    -0.80000
O826        O  0.93879281  0.46349504  0.48160957    -0.80000
O827        O  0.97261350  0.06775691  0.46898661    -0.79900
O828        O  0.53694682  0.44715492  0.45190404    -0.80000
Co829      Co  0.96114975  0.50162096  0.00585962     1.51500
Co830      Co  0.54292181  0.00272920  0.51074392     1.51700
Co831      Co  0.00393042  0.44300116  0.98985856     1.51600
Co832      Co  0.00146344  0.04882022  0.50824817     1.51500
O833        O  0.00262743  0.49549397  0.99202765    -1.41900
C834        C  0.95613488  0.05171923  0.44755604     1.09600
C835        C  0.56343397  0.44895047  0.46383918     1.09700
C836        C  0.94856305  0.44960198  0.45194680     1.09700
C837        C  0.55173907  0.05201113  0.45216095     1.09600
O838        O  0.81632521  0.29040995  0.26718053    -0.80000
O839        O  0.70000797  0.23233857  0.28708136    -0.80000
O840        O  0.71791748  0.30620614  0.29673781    -0.80000
O841        O  0.78304717  0.18567255  0.27897795    -0.79900
O842        O  0.68630397  0.28860686  0.25494333    -0.80100
O843        O  0.80247921  0.23247213  0.29409939    -0.80000
O844        O  0.72285464  0.18568380  0.27699074    -0.80000
O845        O  0.77872433  0.30629133  0.30275792    -0.80000
C846        C  0.80650093  0.30406066  0.29696678     1.09700
C847        C  0.70383016  0.20181876  0.29554191     1.09600
C848        C  0.69139354  0.30347787  0.28525170     1.09700
C849        C  0.79976650  0.20151212  0.30029686     1.09600
O850        O  0.82878990  0.23219273  0.22322212    -0.80000
O851        O  0.72221875  0.27552853  0.18809774    -0.80100
O852        O  0.78378180  0.32423693  0.22243598    -0.80000
O853        O  0.72355829  0.20918748  0.19635192    -0.80000
O854        O  0.67987366  0.23053569  0.21432627    -0.80000
O855        O  0.78734255  0.27692256  0.19375182    -0.80000
O856        O  0.78715482  0.21092316  0.19962225    -0.79900
O857        O  0.72299499  0.32332228  0.21650211    -0.80000
Co858      Co  0.79347145  0.25249554  0.24357094     1.50700
Co859      Co  0.71285597  0.25133951  0.23748605     1.51700
Co860      Co  0.75097408  0.31127744  0.25976502     1.51600
Co861      Co  0.75389627  0.20492201  0.24022122     1.51500
O862        O  0.75215991  0.25874621  0.25783822    -1.41900
C863        C  0.81591747  0.21381811  0.19954864     1.09600
C864        C  0.71633540  0.30676458  0.18778387     1.09700
C865        C  0.79239862  0.30806763  0.19409561     1.09700
C866        C  0.69480166  0.21078903  0.19390720     1.09600
C867        C  0.63964153  0.15317957  0.14600885     0.18900
C868        C  0.60858066  0.15113256  0.14216904    -0.19200
C869        C  0.59600644  0.12588804  0.12104991    -0.11500
C870        C  0.61434961  0.10169620  0.10389390     0.21100
C871        C  0.64538729  0.10373665  0.10777880    -0.20900
C872        C  0.65795027  0.12893722  0.12890845    -0.11700
C873        C  0.60197186  0.07526937  0.08009354    -0.15900
C874        C  0.57381789  0.06423230  0.08398668    -0.29700
C875        C  0.65217170  0.17964478  0.16965257    -0.04000
C876        C  0.68040619  0.19044784  0.16559781    -0.40500
H877        H  0.59402251  0.16936583  0.15518554     0.12300
H878        H  0.57200816  0.12599938  0.11762674     0.11900
H879        H  0.65996538  0.08550112  0.09475973     0.11300
H880        H  0.68195260  0.12874945  0.13235324     0.11600
H881        H  0.61613867  0.06550769  0.05782350     0.14300
H882        H  0.55948008  0.07329561  0.10636813     0.13100
H883        H  0.63812212  0.18955164  0.19194052     0.10800
H884        H  0.69462186  0.18125234  0.14316424     0.12800
C885        C  0.65165557  0.13985138  0.35075771     0.18900
C886        C  0.63402508  0.11335488  0.33840268    -0.19200
C887        C  0.61023968  0.10065572  0.36074840    -0.11500
C888        C  0.60379627  0.11392054  0.39636774     0.21100
C889        C  0.62137616  0.14049391  0.40863762    -0.20900
C890        C  0.64515741  0.15317585  0.38631743    -0.11700
C891        C  0.57957167  0.10018050  0.42190363    -0.15900
C892        C  0.57058208  0.06781032  0.42173036    -0.29700
C893        C  0.67605301  0.15349097  0.32548712    -0.04000
C894        C  0.68474612  0.18594913  0.32558345    -0.40500
H895        H  0.63836295  0.10280082  0.31104864     0.12300
H896        H  0.59680581  0.08073649  0.34978978     0.11900
H897        H  0.61706415  0.15106395  0.43600396     0.11300
H898        H  0.65860560  0.17305055  0.39730984     0.11600
H899        H  0.57128986  0.11595305  0.44422696     0.14300
H900        H  0.58076218  0.05081215  0.40198739     0.13100
H901        H  0.68471182  0.13760086  0.30349275     0.10800
H902        H  0.67414060  0.20297341  0.34496123     0.12800
C903        C  0.60344438  0.39062770  0.10335533     0.18900
C904        C  0.61716388  0.36039925  0.09241661    -0.19200
C905        C  0.64268087  0.34738364  0.11101457    -0.11500
C906        C  0.65532066  0.36449992  0.14108396     0.21100
C907        C  0.64174162  0.39486981  0.15175325    -0.20900
C908        C  0.61623540  0.40785051  0.13319669    -0.11700
C909        C  0.68117136  0.35096733  0.16398616    -0.15900
C910        C  0.69679704  0.32229127  0.15774987    -0.29700
C911        C  0.57718979  0.40401891  0.08113957    -0.04000
C912        C  0.56031795  0.43136998  0.08934964    -0.40500
H913        H  0.60805976  0.34667472  0.06929446     0.12300
H914        H  0.65198468  0.32381671  0.10187517     0.11900
H915        H  0.65083615  0.40865238  0.17485958     0.11300
H916        H  0.60700480  0.43149970  0.14223220     0.11600
H917        H  0.68620665  0.36439353  0.18938907     0.14300
H918        H  0.69245072  0.30770433  0.13314571     0.13100
H919        H  0.57264117  0.39156092  0.05495136     0.10800
H920        H  0.56417247  0.44497085  0.11484514     0.12800
C921        C  0.86842900  0.15346796  0.14904923     0.18900
C922        C  0.88357066  0.12447791  0.16345386    -0.19200
C923        C  0.89297055  0.09931719  0.13928819    -0.11500
C924        C  0.88788169  0.10286170  0.09982218     0.21100
C925        C  0.87281904  0.13193250  0.08541344    -0.20900
C926        C  0.86336379  0.15706636  0.10960332    -0.11700
C927        C  0.89892974  0.07762783  0.07268132    -0.15900
C928        C  0.92260087  0.05737302  0.08022521    -0.29700
C929        C  0.85708079  0.17846536  0.17619860    -0.04000
C930        C  0.83247890  0.19733482  0.16920411    -0.40500
H931        H  0.88753971  0.12088823  0.19371169     0.12300
H932        H  0.90379844  0.07698668  0.15185030     0.11900
H933        H  0.86880771  0.13551642  0.05516497     0.11300
H934        H  0.85241124  0.17937950  0.09717164     0.11600
H935        H  0.88988516  0.07873381  0.04403549     0.14300
H936        H  0.93400931  0.05860835  0.10719073     0.13100
H937        H  0.86661968  0.17799604  0.20455547     0.10800
H938        H  0.82071246  0.19524943  0.14258543     0.12800
C939        C  0.86635426  0.35462779  0.34642491     0.18900
C940        C  0.87791171  0.38660851  0.33598712    -0.19200
C941        C  0.89018536  0.40689127  0.36335221    -0.11500
C942        C  0.89173449  0.39525493  0.40177300     0.21100
C943        C  0.88034617  0.36313304  0.41210630    -0.20900
C944        C  0.86792588  0.34293764  0.38476704    -0.11700
C945        C  0.90606933  0.41534078  0.43139100    -0.15900
C946        C  0.92877846  0.43643432  0.42296226    -0.29700
C947        C  0.85126563  0.33485896  0.31727002    -0.04000
C948        C  0.82630405  0.31743957  0.32580592    -0.40500
H949        H  0.87668810  0.39631347  0.30673244     0.12300
H950        H  0.89807134  0.43181150  0.35435019     0.11900
H951        H  0.88145284  0.35342442  0.44136721     0.11300
H952        H  0.85963728  0.31813766  0.39365184     0.11600
H953        H  0.90055012  0.40950550  0.46109884     0.14300
H954        H  0.93672736  0.43936826  0.39381113     0.13100
H955        H  0.85822005  0.33834809  0.28769448     0.10800
H956        H  0.81747887  0.31727227  0.35464356     0.12800
C957        C  0.90195181  0.11318016  0.39568682     0.18900
C958        C  0.88243812  0.13740068  0.41027230    -0.19200
C959        C  0.85815928  0.14992990  0.38895666    -0.11500
C960        C  0.85307681  0.13880819  0.35217724     0.21100
C961        C  0.87250105  0.11446690  0.33763253    -0.20900
C962        C  0.89681121  0.10194378  0.35894703    -0.11700
C963        C  0.82855094  0.15288757  0.32765631    -0.15900
C964        C  0.81792869  0.18459531  0.33044157    -0.29700
C965        C  0.92664989  0.09953536  0.42020204    -0.04000
C966        C  0.93831397  0.06836824  0.41695245    -0.40500
H967        H  0.88569323  0.14626825  0.43859547     0.12300
H968        H  0.84330408  0.16803505  0.40158465     0.11900
H969        H  0.86923495  0.10563617  0.30930224     0.11300
H970        H  0.91166039  0.08387685  0.34628025     0.11600
H971        H  0.82171310  0.13844161  0.30371764     0.14300
H972        H  0.82665319  0.20058654  0.35192271     0.13100
H973        H  0.93276676  0.11377194  0.44462342     0.10800
H974        H  0.93044134  0.05236661  0.39497696     0.12800
C975        C  0.60564645  0.39219503  0.39611381     0.18900
C976        C  0.59657843  0.36543731  0.37419843    -0.19200
C977        C  0.61768667  0.34574634  0.35581714    -0.11500
C978        C  0.64828714  0.35283928  0.35880717     0.21100
C979        C  0.65736005  0.37925817  0.38109534    -0.20900
C980        C  0.63629748  0.39901924  0.39929934    -0.11700
C981        C  0.67153385  0.33386029  0.33875322    -0.15900
C982        C  0.66655596  0.31812715  0.30647744    -0.29700
C983        C  0.58242607  0.41247364  0.41476574    -0.04000
C984        C  0.58779603  0.43160919  0.44446033    -0.40500
H985        H  0.57309314  0.35962602  0.37147973     0.12300
H986        H  0.60994185  0.32495549  0.33969455     0.11900
H987        H  0.68084730  0.38518968  0.38365663     0.11300
H988        H  0.64425718  0.41994941  0.41501496     0.11600
H989        H  0.69422529  0.33519019  0.34944632     0.14300
H990        H  0.64440815  0.31749115  0.29420368     0.13100
H991        H  0.55962331  0.41019620  0.40475630     0.10800
H992        H  0.60997794  0.43322756  0.45640614     0.12800
C993        C  0.90230453  0.38911825  0.10312586     0.18900
C994        C  0.88073740  0.36855435  0.08711974    -0.19200
C995        C  0.85634230  0.35647137  0.10864969    -0.11500
C996        C  0.85317084  0.36440989  0.14700486     0.21100
C997        C  0.87476310  0.38493685  0.16302907    -0.20900
C998        C  0.89915146  0.39703403  0.14148918    -0.11700
C999        C  0.82813975  0.35154408  0.17156340    -0.15900
C1000       C  0.81206871  0.32385393  0.16461926    -0.29700
C1001       C  0.92725073  0.40212363  0.07851569    -0.04000
C1002       C  0.94292885  0.43015568  0.08520640    -0.40500
H1003       H  0.88251151  0.36222197  0.05757156     0.12300
H1004       H  0.83993767  0.34138223  0.09489444     0.11900
H1005       H  0.87298365  0.39127927  0.19256675     0.11300
H1006       H  0.91556077  0.41215070  0.15521820     0.11600
H1007       H  0.82473262  0.36350495  0.19844959     0.14300
H1008       H  0.81637927  0.30978200  0.13944981     0.13100
H1009       H  0.93081701  0.39003623  0.05173226     0.10800
H1010       H  0.93838853  0.44431277  0.11026196     0.12800
O1011       O  0.96772920  0.47755670  0.55474816    -0.80000
O1012       O  0.57579256  0.02443987  0.53378487    -0.80000
O1013       O  0.53174872  0.43023593  0.53191597    -0.80000
O1014       O  0.96818311  0.04290284  0.54857671    -0.79900
O1015       O  0.53344243  0.47808269  0.56023089    -0.80100
O1016       O  0.92646891  0.02217309  0.52489770    -0.80000
O1017       O  0.53170633  0.04459304  0.55159849    -0.80000
O1018       O  0.97161415  0.42988154  0.52673390    -0.80000
C1019       C  0.96285606  0.44633180  0.55482755     1.09700
C1020       C  0.56043893  0.04426149  0.55375164     1.09600
C1021       C  0.53898917  0.44673640  0.56043086     1.09700
C1022       C  0.93941234  0.04072316  0.54835620     1.09600
O1023       O  0.95304786  0.02107108  0.95568281    -0.80000
O1024       O  0.56909655  0.46586241  0.99360147    -0.80100
O1025       O  0.97622791  0.44814789  0.94687411    -0.80000
O1026       O  0.53178055  0.06921201  0.97285004    -0.80000
O1027       O  0.55467092  0.02280145  0.96185389    -0.80000
O1028       O  0.93844069  0.46352809  0.98235121    -0.80000
O1029       O  0.97168616  0.06812041  0.97131445    -0.79900
O1030       O  0.53733642  0.44763786  0.95219207    -0.80000
Co1031     Co  0.96201879  0.50152117  0.50454053     1.51500
Co1032     Co  0.54206571  0.00333227  0.01151367     1.51700
Co1033     Co  0.00429290  0.44242955  0.48892867     1.51600
Co1034     Co  0.00095247  0.04904481  0.01010970     1.51500
O1035       O  0.00342841  0.49497164  0.49051274    -1.41900
C1036       C  0.95544231  0.05205126  0.94961934     1.09600
C1037       C  0.56382725  0.45010141  0.96394589     1.09700
C1038       C  0.94843897  0.45003543  0.95256847     1.09700
C1039       C  0.55077883  0.05343876  0.95389391     1.09600
O1040       O  0.81657165  0.29048320  0.76734053    -0.80000
O1041       O  0.69979316  0.23302537  0.78917582    -0.80000
O1042       O  0.71840059  0.30691950  0.79755412    -0.80000
O1043       O  0.78293861  0.18615865  0.77991853    -0.79900
O1044       O  0.68618043  0.28922361  0.75656338    -0.80100
O1045       O  0.80207778  0.23309651  0.79483222    -0.80000
O1046       O  0.72289806  0.18636136  0.77987808    -0.80000
O1047       O  0.77906214  0.30680652  0.80286091    -0.80000
C1048       C  0.80682029  0.30437338  0.79703803     1.09700
C1049       C  0.70398962  0.20268868  0.79839145     1.09600
C1050       C  0.69177513  0.30444661  0.78646498     1.09700
C1051       C  0.79947085  0.20217520  0.80125642     1.09600
O1052       O  0.82794766  0.23105648  0.72345981    -0.80000
O1053       O  0.72106842  0.27553214  0.68937671    -0.80100
O1054       O  0.78376377  0.32458723  0.72261056    -0.80000
O1055       O  0.72210589  0.20872269  0.69877406    -0.80000
O1056       O  0.67872158  0.23084048  0.71671301    -0.80000
O1057       O  0.78743477  0.27717497  0.69410436    -0.80000
O1058       O  0.78559960  0.21117507  0.70037411    -0.79900
O1059       O  0.72269001  0.32367637  0.71714700    -0.80000
Co1060     Co  0.79320769  0.25273302  0.74406535     1.50700
Co1061     Co  0.71221013  0.25162450  0.73908553     1.51700
Co1062     Co  0.75105730  0.31176316  0.76016209     1.51600
Co1063     Co  0.75318193  0.20517192  0.74184852     1.51500
O1064       O  0.75187891  0.25923523  0.75854638    -1.41900
C1065       C  0.81442552  0.21283853  0.70012746     1.09600
C1066       C  0.71537945  0.30685296  0.68886021     1.09700
C1067       C  0.79256142  0.30834314  0.69441941     1.09700
C1068       C  0.69335837  0.21074426  0.69639517     1.09600
C1069       C  0.63790296  0.15471743  0.64624358     0.18900
C1070       C  0.60739109  0.15487131  0.63746727    -0.19200
C1071       C  0.59550461  0.12965173  0.61556712    -0.11500
C1072       C  0.61393747  0.10343706  0.60255558     0.21100
C1073       C  0.64435241  0.10327461  0.61142872    -0.20900
C1074       C  0.65617709  0.12831633  0.63341840    -0.11700
C1075       C  0.60232467  0.07669838  0.57856160    -0.15900
C1076       C  0.57404169  0.06599629  0.58145171    -0.29700
C1077       C  0.65002104  0.18131052  0.67017521    -0.04000
C1078       C  0.67885135  0.19040602  0.66806459    -0.40500
H1079       H  0.59283426  0.17474560  0.64716640     0.12300
H1080       H  0.57206781  0.13116171  0.60831518     0.11900
H1081       H  0.65894296  0.08336456  0.60178866     0.11300
H1082       H  0.67958032  0.12643412  0.64086625     0.11600
H1083       H  0.61726744  0.06595487  0.55774311     0.14300
H1084       H  0.55921720  0.07614905  0.60271844     0.13100
H1085       H  0.63526952  0.19265877  0.69075193     0.10800
H1086       H  0.69345909  0.17981389  0.64684814     0.12800
C1087       C  0.65134091  0.14171345  0.85419444     0.18900
C1088       C  0.63291667  0.11617189  0.84124188    -0.19200
C1089       C  0.60900693  0.10369031  0.86347360    -0.11500
C1090       C  0.60322643  0.11609883  0.89966825     0.21100
C1091       C  0.62151002  0.14185984  0.91252489    -0.20900
C1092       C  0.64540577  0.15442263  0.89021734    -0.11700
C1093       C  0.57901666  0.10209209  0.92511584    -0.15900
C1094       C  0.56962938  0.06989844  0.92388666    -0.29700
C1095       C  0.67592568  0.15495401  0.82892831    -0.04000
C1096       C  0.68540293  0.18712133  0.82922035    -0.40500
H1097       H  0.63675670  0.10617034  0.81348050     0.12300
H1098       H  0.59499336  0.08452433  0.85200947     0.11900
H1099       H  0.61767754  0.15182034  0.94029945     0.11300
H1100       H  0.65939704  0.17366960  0.90153931     0.11600
H1101       H  0.57111311  0.11732963  0.94809819     0.14300
H1102       H  0.57953909  0.05334088  0.90346484     0.13100
H1103       H  0.68386410  0.13915008  0.80644829     0.10800
H1104       H  0.67549114  0.20421411  0.84908183     0.12800
C1105       C  0.60107065  0.38942740  0.60547578     0.18900
C1106       C  0.61362950  0.35800192  0.59656134    -0.19200
C1107       C  0.63936929  0.34531305  0.61495686    -0.11500
C1108       C  0.65344643  0.36394226  0.64276392     0.21100
C1109       C  0.64092486  0.39540534  0.65156385    -0.20900
C1110       C  0.61519891  0.40807965  0.63319065    -0.11700
C1111       C  0.67963617  0.35083282  0.66542389    -0.15900
C1112       C  0.69535546  0.32219815  0.65917386    -0.29700
C1113       C  0.57483553  0.40262502  0.58301114    -0.04000
C1114       C  0.55886930  0.43095266  0.58994755    -0.40500
H1115       H  0.60347225  0.34311539  0.57512985     0.12300
H1116       H  0.64769570  0.32075477  0.60754936     0.11900
H1117       H  0.65108847  0.41034104  0.67296413     0.11300
H1118       H  0.60692351  0.43267346  0.64054638     0.11600
H1119       H  0.68496472  0.36460527  0.69047890     0.14300
H1120       H  0.69078203  0.30748069  0.63471218     0.13100
H1121       H  0.56972835  0.38929613  0.55757657     0.10800
H1122       H  0.56320599  0.44518793  0.61485812     0.12800
C1123       C  0.86511041  0.15019118  0.64902723     0.18900
C1124       C  0.88323590  0.12324391  0.66276080    -0.19200
C1125       C  0.89320603  0.09828697  0.63865252    -0.11500
C1126       C  0.88561793  0.09988073  0.59980300     0.21100
C1127       C  0.86728148  0.12663603  0.58609540    -0.20900
C1128       C  0.85732027  0.15163384  0.61020402    -0.11700
C1129       C  0.89736987  0.07507660  0.57251976    -0.15900
C1130       C  0.92313314  0.05801152  0.57845954    -0.29700
C1131       C  0.85413431  0.17538457  0.67639864    -0.04000
C1132       C  0.83018062  0.19544301  0.66970926    -0.40500
H1133       H  0.88938587  0.12118297  0.69250179     0.12300
H1134       H  0.90654221  0.07764340  0.65082946     0.11900
H1135       H  0.86119504  0.12867332  0.55633420     0.11300
H1136       H  0.84400001  0.17220117  0.59790583     0.11600
H1137       H  0.88662206  0.07388113  0.54500831     0.14300
H1138       H  0.93573996  0.06170830  0.60411235     0.13100
H1139       H  0.86398713  0.17480197  0.70457536     0.10800
H1140       H  0.81810651  0.19414615  0.64325748     0.12800
C1141       C  0.86512709  0.35685180  0.84698001     0.18900
C1142       C  0.87713632  0.38860833  0.83642924    -0.19200
C1143       C  0.88934542  0.40895663  0.86377221    -0.11500
C1144       C  0.89021451  0.39770116  0.90233107     0.21100
C1145       C  0.87823780  0.36594001  0.91288272    -0.20900
C1146       C  0.86606245  0.34557683  0.88553794    -0.11700
C1147       C  0.90472209  0.41774434  0.93177025    -0.15900
C1148       C  0.92890956  0.43660002  0.92349301    -0.29700
C1149       C  0.85050961  0.33686304  0.81754856    -0.04000
C1150       C  0.82661261  0.31756748  0.82598493    -0.40500
H1151       H  0.87648728  0.39802332  0.80703053     0.12300
H1152       H  0.89783277  0.43359893  0.85468653     0.11900
H1153       H  0.87889047  0.35653683  0.94227894     0.11300
H1154       H  0.85762652  0.32091146  0.89465791     0.11600
H1155       H  0.89800688  0.41348103  0.96134214     0.14300
H1156       H  0.93771229  0.43771582  0.89463930     0.13100
H1157       H  0.85686370  0.34150308  0.78789502     0.10800
H1158       H  0.81808335  0.31604808  0.85496301     0.12800
C1159       C  0.89976190  0.11267364  0.89871831     0.18900
C1160       C  0.88105715  0.13803125  0.91260161    -0.19200
C1161       C  0.85699189  0.15091385  0.89111931    -0.11500
C1162       C  0.85123853  0.13889743  0.85490991     0.21100
C1163       C  0.86968156  0.11327598  0.84117813    -0.20900
C1164       C  0.89382594  0.10047944  0.86258128    -0.11700
C1165       C  0.82706723  0.15328424  0.83005613    -0.15900
C1166       C  0.81749592  0.18549956  0.83168561    -0.29700
C1167       C  0.92453135  0.09914567  0.92330049    -0.04000
C1168       C  0.93730245  0.06861885  0.91928917    -0.40500
H1169       H  0.88486845  0.14767996  0.94044267     0.12300
H1170       H  0.84285600  0.17003434  0.90315605     0.11900
H1171       H  0.86585454  0.10369997  0.81330721     0.11300
H1172       H  0.90793026  0.08152564  0.85026310     0.11600
H1173       H  0.81959123  0.13838392  0.80679153     0.14300
H1174       H  0.82677068  0.20176347  0.85252380     0.13100
H1175       H  0.93015889  0.11309924  0.94813804     0.10800
H1176       H  0.93023117  0.05272667  0.89681825     0.12800
C1177       C  0.60670681  0.39437999  0.89634123     0.18900
C1178       C  0.59819211  0.36617865  0.87647170    -0.19200
C1179       C  0.61954311  0.34703842  0.85796421    -0.11500
C1180       C  0.64980268  0.35621680  0.85861177     0.21100
C1181       C  0.65839436  0.38411304  0.87892288    -0.20900
C1182       C  0.63704254  0.40327657  0.89740780    -0.11700
C1183       C  0.67306270  0.33762609  0.83826563    -0.15900
C1184       C  0.66740061  0.31976352  0.80770430    -0.29700
C1185       C  0.58318479  0.41394323  0.91510613    -0.04000
C1186       C  0.58844759  0.43369754  0.94421268    -0.40500
H1187       H  0.57495145  0.35877651  0.87551693     0.12300
H1188       H  0.61223499  0.32500883  0.84361149     0.11900
H1189       H  0.68161885  0.39157552  0.87973316     0.11300
H1190       H  0.64441568  0.42535646  0.91160099     0.11600
H1191       H  0.69603576  0.34062358  0.84734575     0.14300
H1192       H  0.64491461  0.31772249  0.79674820     0.13100
H1193       H  0.56030694  0.41040711  0.90590254     0.10800
H1194       H  0.61077215  0.43637101  0.95546229     0.12800
C1195       C  0.90236873  0.38991805  0.60296228     0.18900
C1196       C  0.88086979  0.36909553  0.58720893    -0.19200
C1197       C  0.85654034  0.35698372  0.60887423    -0.11500
C1198       C  0.85332537  0.36510374  0.64716714     0.21100
C1199       C  0.87478777  0.38601068  0.66292164    -0.20900
C1200       C  0.89912188  0.39816365  0.64122438    -0.11700
C1201       C  0.82838603  0.35201039  0.67188312    -0.15900
C1202       C  0.81241094  0.32416213  0.66504392    -0.29700
C1203       C  0.92736279  0.40272109  0.57818663    -0.04000
C1204       C  0.94327519  0.43067437  0.58460020    -0.40500
H1205       H  0.88267172  0.36251781  0.55774101     0.12300
H1206       H  0.84023074  0.34164828  0.59526478     0.11900
H1207       H  0.87297534  0.39257409  0.69238261     0.11300
H1208       H  0.91542387  0.41354414  0.65475991     0.11600
H1209       H  0.82489912  0.36402682  0.69870999     0.14300
H1210       H  0.81681703  0.31005799  0.63990780     0.13100
H1211       H  0.93083945  0.39044756  0.55150332     0.10800
H1212       H  0.93887524  0.44500889  0.60956726     0.12800
O1213       O  0.96769171  0.97698491  0.05621425    -0.80000
O1214       O  0.57523292  0.52440313  0.03446527    -0.80000
O1215       O  0.53211438  0.93091207  0.03241972    -0.80000
O1216       O  0.96698216  0.54329290  0.04979053    -0.79900
O1217       O  0.53310549  0.97868366  0.06084193    -0.80100
O1218       O  0.92559703  0.52209566  0.02567465    -0.80000
O1219       O  0.53113120  0.54470647  0.05219234    -0.80000
O1220       O  0.97162338  0.92963642  0.02758515    -0.80000
C1221       C  0.96295153  0.94576936  0.05597340     1.09700
C1222       C  0.55987494  0.54406936  0.05457207     1.09600
C1223       C  0.53917401  0.94748200  0.06092794     1.09700
C1224       C  0.93823009  0.54066833  0.04934329     1.09600
O1225       O  0.95352114  0.52081663  0.45357995    -0.80000
O1226       O  0.56923941  0.96528348  0.49329922    -0.80100
O1227       O  0.97651701  0.94755571  0.44596501    -0.80000
O1228       O  0.53315138  0.56810082  0.47122992    -0.80000
O1229       O  0.55554911  0.52123057  0.46100623    -0.80000
O1230       O  0.93885399  0.96316259  0.48155770    -0.80000
O1231       O  0.97238519  0.56787649  0.46867814    -0.79900
O1232       O  0.53723973  0.94744440  0.45198447    -0.80000
Co1233     Co  0.96167619  0.00130564  0.00633769     1.51500
Co1234     Co  0.54266656  0.50241226  0.51082285     1.51700
Co1235     Co  0.00430291  0.94277992  0.98993401     1.51600
Co1236     Co  0.00169487  0.54900428  0.50740610     1.51500
O1237       O  0.00307790  0.99526238  0.99226711    -1.41900
C1238       C  0.95605162  0.55174625  0.44718723     1.09600
C1239       C  0.56377319  0.94950720  0.46368278     1.09700
C1240       C  0.94874344  0.94949412  0.45181323     1.09700
C1241       C  0.55194423  0.55180003  0.45251305     1.09600
O1242       O  0.81594440  0.79082589  0.26700564    -0.80000
O1243       O  0.69984908  0.73216654  0.28731619    -0.80000
O1244       O  0.71767898  0.80615603  0.29711571    -0.80000
O1245       O  0.78319123  0.68597672  0.27825217    -0.79900
O1246       O  0.68585569  0.78858125  0.25557751    -0.80100
O1247       O  0.80211087  0.73289602  0.29376981    -0.80000
O1248       O  0.72295876  0.68569708  0.27701479    -0.80000
O1249       O  0.77834559  0.80642202  0.30272579    -0.80000
C1250       C  0.80610678  0.80436666  0.29685995     1.09700
C1251       C  0.70390479  0.70166131  0.29570248     1.09600
C1252       C  0.69110689  0.80339323  0.28587022     1.09700
C1253       C  0.79972062  0.70188976  0.29973986     1.09600
O1254       O  0.82826006  0.73259379  0.22267989    -0.80000
O1255       O  0.72138051  0.77592348  0.18836412    -0.80100
O1256       O  0.78320521  0.82475248  0.22244090    -0.80000
O1257       O  0.72291098  0.70942545  0.19648217    -0.80000
O1258       O  0.67927237  0.73069936  0.21477418    -0.80000
O1259       O  0.78678674  0.77752090  0.19362621    -0.80000
O1260       O  0.78653035  0.71166127  0.19898157    -0.79900
O1261       O  0.72231680  0.82364783  0.21692648    -0.80000
Co1262     Co  0.79303773  0.75295391  0.24331631     1.50700
Co1263     Co  0.71236750  0.75147710  0.23770902     1.51700
Co1264     Co  0.75050989  0.81151003  0.25991261     1.51600
Co1265     Co  0.75362779  0.70522704  0.23993987     1.51500
O1266       O  0.75175925  0.75900104  0.25775326    -1.41900
C1267       C  0.81529897  0.71439413  0.19889551     1.09600
C1268       C  0.71551362  0.80716736  0.18821114     1.09700
C1269       C  0.79187149  0.80865197  0.19406569     1.09700
C1270       C  0.69413413  0.71097368  0.19426080     1.09600
C1271       C  0.63876383  0.65397575  0.14588003     0.18900
C1272       C  0.60792830  0.65323875  0.13940509    -0.19200
C1273       C  0.59564023  0.62794543  0.11804705    -0.11500
C1274       C  0.61401345  0.60245008  0.10335044     0.21100
C1275       C  0.64479524  0.60316774  0.10995341    -0.20900
C1276       C  0.65705469  0.62837773  0.13132442    -0.11700
C1277       C  0.60199115  0.57578528  0.07958669    -0.15900
C1278       C  0.57361325  0.56537186  0.08254854    -0.29700
C1279       C  0.65113902  0.68060889  0.16941100    -0.04000
C1280       C  0.67967249  0.69054853  0.16607696    -0.40500
H1281       H  0.59338691  0.67252271  0.15046866     0.12300
H1282       H  0.57190477  0.62895573  0.11250338     0.11900
H1283       H  0.65937613  0.58387267  0.09892400     0.11300
H1284       H  0.68078503  0.62722096  0.13694705     0.11600
H1285       H  0.61669481  0.56506205  0.05848198     0.14300
H1286       H  0.55887552  0.57539007  0.10397491     0.13100
H1287       H  0.63677618  0.69132717  0.19085491     0.10800
H1288       H  0.69403222  0.68056454  0.14422267     0.12800
C1289       C  0.65176456  0.63959369  0.35081052     0.18900
C1290       C  0.63384148  0.61337752  0.33836057    -0.19200
C1291       C  0.61013213  0.60068942  0.36086047    -0.11500
C1292       C  0.60404334  0.61370060  0.39669901     0.21100
C1293       C  0.62189757  0.64000274  0.40905409    -0.20900
C1294       C  0.64561993  0.65264588  0.38660451    -0.11700
C1295       C  0.57988677  0.59996610  0.42234214    -0.15900
C1296       C  0.57090293  0.56759189  0.42218162    -0.29700
C1297       C  0.67607516  0.65326327  0.32540153    -0.04000
C1298       C  0.68505284  0.68560814  0.32586459    -0.40500
H1299       H  0.63789817  0.60303276  0.31083299     0.12300
H1300       H  0.59647033  0.58097541  0.34987126     0.11900
H1301       H  0.61785413  0.65036863  0.43658729     0.11300
H1302       H  0.65930113  0.67228749  0.39768487     0.11600
H1303       H  0.57164303  0.61574323  0.44468027     0.14300
H1304       H  0.58107718  0.55061395  0.40240508     0.13100
H1305       H  0.68438985  0.63757553  0.30303634     0.10800
H1306       H  0.67474372  0.70250390  0.34562215     0.12800
C1307       C  0.60218482  0.89090383  0.10484212     0.18900
C1308       C  0.61637902  0.86118669  0.09322590    -0.19200
C1309       C  0.64210358  0.84839129  0.11148029    -0.11500
C1310       C  0.65445724  0.86514409  0.14199909     0.21100
C1311       C  0.64036735  0.89498290  0.15344268    -0.20900
C1312       C  0.61463907  0.90776842  0.13519477    -0.11700
C1313       C  0.68056693  0.85170555  0.16450800    -0.15900
C1314       C  0.69587925  0.82279181  0.15834358    -0.29700
C1315       C  0.57580880  0.90411682  0.08272678    -0.04000
C1316       C  0.55944955  0.93202824  0.09017383    -0.40500
H1317       H  0.60754468  0.84773284  0.06971637     0.12300
H1318       H  0.65183302  0.82529596  0.10162367     0.11900
H1319       H  0.64920403  0.90845954  0.17693459     0.11300
H1320       H  0.60495336  0.93093403  0.14493367     0.11600
H1321       H  0.68594785  0.86526801  0.18969525     0.14300
H1322       H  0.69114178  0.80801892  0.13400717     0.13100
H1323       H  0.57090707  0.89116134  0.05696428     0.10800
H1324       H  0.56368293  0.94620774  0.11513625     0.12800
C1325       C  0.86556324  0.65153199  0.14860729     0.18900
C1326       C  0.88043453  0.62230762  0.16292484    -0.19200
C1327       C  0.88994470  0.59729269  0.13865184    -0.11500
C1328       C  0.88515112  0.60112208  0.09917532     0.21100
C1329       C  0.87008402  0.63020492  0.08483525    -0.20900
C1330       C  0.86059661  0.65527659  0.10911718    -0.11700
C1331       C  0.89674863  0.57620854  0.07204612    -0.15900
C1332       C  0.92145881  0.55754980  0.07926535    -0.29700
C1333       C  0.85469598  0.67664626  0.17599185    -0.04000
C1334       C  0.83177798  0.69798934  0.16843064    -0.40500
H1335       H  0.88431620  0.61853428  0.19318358     0.12300
H1336       H  0.90077407  0.57487241  0.15105028     0.11900
H1337       H  0.86627396  0.63394584  0.05456327     0.11300
H1338       H  0.84984346  0.67766087  0.09661848     0.11600
H1339       H  0.88725428  0.57648133  0.04367051     0.14300
H1340       H  0.93311891  0.55994330  0.10590281     0.13100
H1341       H  0.86320972  0.67459656  0.20489038     0.10800
H1342       H  0.82074302  0.69797901  0.14112306     0.12800
C1343       C  0.86572593  0.85508704  0.34666059     0.18900
C1344       C  0.87820819  0.88653239  0.33589884    -0.19200
C1345       C  0.89052312  0.90689474  0.36314455    -0.11500
C1346       C  0.89117556  0.89588363  0.40181318     0.21100
C1347       C  0.87878372  0.86434421  0.41252158    -0.20900
C1348       C  0.86635819  0.84404426  0.38528443    -0.11700
C1349       C  0.90566019  0.91599400  0.43128839    -0.15900
C1350       C  0.92911612  0.93600259  0.42286622    -0.29700
C1351       C  0.85078222  0.83522839  0.31743418    -0.04000
C1352       C  0.82579718  0.81779913  0.32577356    -0.40500
H1353       H  0.87773182  0.89576496  0.30643023     0.12300
H1354       H  0.89917598  0.93140358  0.35383068     0.11900
H1355       H  0.87917981  0.85511758  0.44199059     0.11300
H1356       H  0.85741475  0.81963398  0.39449506     0.11600
H1357       H  0.89948717  0.91106944  0.46094982     0.14300
H1358       H  0.93755717  0.93794948  0.39387133     0.13100
H1359       H  0.85793455  0.83857334  0.28792669     0.10800
H1360       H  0.81677362  0.81770658  0.35450363     0.12800
C1361       C  0.90180416  0.61335009  0.39543632     0.18900
C1362       C  0.88295007  0.63843319  0.40956803    -0.19200
C1363       C  0.85871753  0.65112264  0.38826730    -0.11500
C1364       C  0.85301497  0.63927788  0.35194548     0.21100
C1365       C  0.87182106  0.61414209  0.33784141    -0.20900
C1366       C  0.89608457  0.60147802  0.35912018    -0.11700
C1367       C  0.82846964  0.65331050  0.32740463    -0.15900
C1368       C  0.81802392  0.68511618  0.32983594    -0.29700
C1369       C  0.92643819  0.59955018  0.41997332    -0.04000
C1370       C  0.93796405  0.56830243  0.41680343    -0.40500
H1371       H  0.88666232  0.64784524  0.43753595     0.12300
H1372       H  0.84436584  0.66986852  0.40061677     0.11900
H1373       H  0.86809786  0.60475057  0.30986071     0.11300
H1374       H  0.91043194  0.58278067  0.34670273     0.11600
H1375       H  0.82138062  0.63862908  0.30376866     0.14300
H1376       H  0.82689570  0.70128341  0.35105032     0.13100
H1377       H  0.93278841  0.61389139  0.44421328     0.10800
H1378       H  0.92996419  0.55221263  0.39499401     0.12800
C1379       C  0.60590601  0.89336106  0.39555521     0.18900
C1380       C  0.59686586  0.86581066  0.37488735    -0.19200
C1381       C  0.61797306  0.84583707  0.35693655    -0.11500
C1382       C  0.64851456  0.85348404  0.35905266     0.21100
C1383       C  0.65757092  0.88075364  0.38006442    -0.20900
C1384       C  0.63649448  0.90078329  0.39787327    -0.11700
C1385       C  0.67165737  0.83424516  0.33920045    -0.15900
C1386       C  0.66642030  0.81804855  0.30730560    -0.29700
C1387       C  0.58273096  0.91369613  0.41408496    -0.04000
C1388       C  0.58815740  0.93259360  0.44393229    -0.40500
H1389       H  0.57341779  0.85955477  0.37290200     0.12300
H1390       H  0.61029218  0.82440591  0.34181586     0.11900
H1391       H  0.68101772  0.88711304  0.38189906     0.11300
H1392       H  0.64432777  0.92234475  0.41263399     0.11600
H1393       H  0.69443653  0.83590734  0.34950872     0.14300
H1394       H  0.64416083  0.81719381  0.29537380     0.13100
H1395       H  0.55990974  0.91135560  0.40415577     0.10800
H1396       H  0.61039065  0.93415640  0.45576612     0.12800
C1397       C  0.90257818  0.88917340  0.10384713     0.18900
C1398       C  0.88196155  0.86716784  0.08828231    -0.19200
C1399       C  0.85720207  0.85544384  0.10935643    -0.11500
C1400       C  0.85264592  0.86518032  0.14690129     0.21100
C1401       C  0.87324665  0.88721324  0.16248636    -0.20900
C1402       C  0.89801137  0.89896507  0.14138603    -0.11700
C1403       C  0.82732868  0.85249123  0.17119337    -0.15900
C1404       C  0.81166221  0.82439251  0.16465931    -0.29700
C1405       C  0.92785172  0.90179675  0.07942846    -0.04000
C1406       C  0.94353797  0.92990977  0.08574668    -0.40500
H1407       H  0.88476120  0.85938152  0.05935304     0.12300
H1408       H  0.84163839  0.83915716  0.09580491     0.11900
H1409       H  0.87042201  0.89499807  0.19139385     0.11300
H1410       H  0.91355945  0.91530645  0.15488654     0.11600
H1411       H  0.82334175  0.86500088  0.19761548     0.14300
H1412       H  0.81638325  0.80991451  0.13991288     0.13100
H1413       H  0.93168418  0.88929665  0.05294973     0.10800
H1414       H  0.93897347  0.94437503  0.11055721     0.12800
O1415       O  0.96762615  0.97696253  0.55490646    -0.80000
O1416       O  0.57551726  0.52385718  0.53415948    -0.80000
O1417       O  0.53233570  0.93054892  0.53201271    -0.80000
O1418       O  0.96881523  0.54320098  0.54822981    -0.79900
O1419       O  0.53397203  0.97844985  0.56025331    -0.80100
O1420       O  0.92689426  0.52304345  0.52449782    -0.80000
O1421       O  0.53150381  0.54433834  0.55191692    -0.80000
O1422       O  0.97164926  0.92951544  0.52641989    -0.80000
C1423       C  0.96286159  0.94572563  0.55469229     1.09700
C1424       C  0.56024608  0.54363874  0.55427432     1.09600
C1425       C  0.53957065  0.94711757  0.56047276     1.09700
C1426       C  0.94002106  0.54144121  0.54796439     1.09600
O1427       O  0.95257490  0.52135014  0.95512171    -0.80000
O1428       O  0.56860988  0.96624282  0.99381488    -0.80100
O1429       O  0.97647418  0.94802325  0.94710547    -0.80000
O1430       O  0.53195311  0.56851620  0.97153512    -0.80000
O1431       O  0.55513655  0.52208734  0.96153296    -0.80000
O1432       O  0.93878092  0.96332709  0.98277569    -0.80000
O1433       O  0.97166723  0.56832034  0.97034754    -0.79900
O1434       O  0.53684238  0.94795524  0.95249651    -0.80000
Co1435     Co  0.96181914  0.00119776  0.50489414     1.51500
Co1436     Co  0.54249843  0.50285982  0.01127619     1.51700
Co1437     Co  0.00438725  0.94241201  0.48878248     1.51600
Co1438     Co  0.00050264  0.54932518  0.00966402     1.51500
O1439       O  0.00331847  0.99492701  0.49088104    -1.41900
C1440       C  0.95526671  0.55228458  0.94880700     1.09600
C1441       C  0.56332656  0.95035983  0.96424209     1.09700
C1442       C  0.94870089  0.94992682  0.95288201     1.09700
C1443       C  0.55107269  0.55257460  0.95296629     1.09600
O1444       O  0.81610328  0.79093307  0.76771563    -0.80000
O1445       O  0.69982307  0.73310188  0.78865677    -0.80000
O1446       O  0.71775177  0.80673337  0.79761182    -0.80000
O1447       O  0.78235813  0.68637321  0.77957137    -0.79900
O1448       O  0.68583212  0.78924126  0.75615889    -0.80100
O1449       O  0.80210703  0.73311264  0.79429544    -0.80000
O1450       O  0.72230347  0.68634041  0.77818930    -0.80000
O1451       O  0.77845492  0.80670479  0.80334175    -0.80000
C1452       C  0.80623100  0.80453211  0.79754479     1.09700
C1453       C  0.70359840  0.70257507  0.79712737     1.09600
C1454       C  0.69118314  0.80429696  0.78624924     1.09700
C1455       C  0.79908440  0.70224455  0.80083185     1.09600
O1456       O  0.82809926  0.73232285  0.72305854    -0.80000
O1457       O  0.72114762  0.77600639  0.68916366    -0.80100
O1458       O  0.78345658  0.82512517  0.72319947    -0.80000
O1459       O  0.72243141  0.70966413  0.69746319    -0.80000
O1460       O  0.67890768  0.73089961  0.71605908    -0.80000
O1461       O  0.78708283  0.77800059  0.69411620    -0.80000
O1462       O  0.78603996  0.71159566  0.70001602    -0.79900
O1463       O  0.72252828  0.82395458  0.71735931    -0.80000
Co1464     Co  0.79307893  0.75321752  0.74380983     1.50700
Co1465     Co  0.71218804  0.75188115  0.73869708     1.51700
Co1466     Co  0.75064478  0.81189871  0.76049363     1.51600
Co1467     Co  0.75309758  0.70552957  0.74098473     1.51500
O1468       O  0.75173674  0.75941845  0.75835248    -1.41900
C1469       C  0.81484399  0.71395312  0.69965249     1.09600
C1470       C  0.71551319  0.80731859  0.68882107     1.09700
C1471       C  0.79213154  0.80916448  0.69472965     1.09700
C1472       C  0.69364720  0.71119531  0.69537581     1.09600
C1473       C  0.63833853  0.65423741  0.64616425     0.18900
C1474       C  0.60744866  0.65303043  0.64002698    -0.19200
C1475       C  0.59531685  0.62782715  0.61831911    -0.11500
C1476       C  0.61390912  0.60292046  0.60283247     0.21100
C1477       C  0.64472349  0.60412922  0.60904906    -0.20900
C1478       C  0.65681440  0.62918396  0.63081900    -0.11700
C1479       C  0.60206927  0.57632435  0.57874625    -0.15900
C1480       C  0.57401575  0.56491790  0.58232658    -0.29700
C1481       C  0.65060780  0.68071771  0.67015729    -0.04000
C1482       C  0.67912335  0.69088568  0.66702143    -0.40500
H1483       H  0.59273066  0.67184909  0.65167922     0.12300
H1484       H  0.57152074  0.62841287  0.61315196     0.11900
H1485       H  0.65948037  0.58528019  0.59744190     0.11300
H1486       H  0.68060160  0.62829503  0.63612107     0.11600
H1487       H  0.61664320  0.56641263  0.55698844     0.14300
H1488       H  0.55942306  0.57425000  0.60431516     0.13100
H1489       H  0.63620037  0.69111020  0.69175677     0.10800
H1490       H  0.69351157  0.68124133  0.64500607     0.12800
C1491       C  0.65096600  0.64107274  0.85241059     0.18900
C1492       C  0.63345374  0.61450795  0.83997602    -0.19200
C1493       C  0.60952321  0.60183943  0.86205953    -0.11500
C1494       C  0.60278059  0.61516926  0.89754995     0.21100
C1495       C  0.62016677  0.64189055  0.90989059    -0.20900
C1496       C  0.64411107  0.65456579  0.88779999    -0.11700
C1497       C  0.57850681  0.60121103  0.92289170    -0.15900
C1498       C  0.56991859  0.56868339  0.92273526    -0.29700
C1499       C  0.67555943  0.65453200  0.82726864    -0.04000
C1500       C  0.68474552  0.68681220  0.82753928    -0.40500
H1501       H  0.63801885  0.60383255  0.81273370     0.12300
H1502       H  0.59623312  0.58184498  0.85101000     0.11900
H1503       H  0.61560781  0.65253571  0.93714820     0.11300
H1504       H  0.65740609  0.67454016  0.89887080     0.11600
H1505       H  0.56989602  0.61693357  0.94506576     0.14300
H1506       H  0.58045918  0.55179573  0.90315073     0.13100
H1507       H  0.68390275  0.63868873  0.80504640     0.10800
H1508       H  0.67455398  0.70388652  0.84718632     0.12800
C1509       C  0.60176444  0.89004535  0.60530077     0.18900
C1510       C  0.61420999  0.85853972  0.59653010    -0.19200
C1511       C  0.63991727  0.84585837  0.61494550    -0.11500
C1512       C  0.65406239  0.86460163  0.64258664     0.21100
C1513       C  0.64166913  0.89615231  0.65123358    -0.20900
C1514       C  0.61597013  0.90881731  0.63283958    -0.11700
C1515       C  0.68012448  0.85145210  0.66533131    -0.15900
C1516       C  0.69585006  0.82287708  0.65896697    -0.29700
C1517       C  0.57555200  0.90319674  0.58285691    -0.04000
C1518       C  0.55949054  0.93140498  0.58993790    -0.40500
H1519       H  0.60397397  0.84357700  0.57523331     0.12300
H1520       H  0.64813171  0.82120811  0.60772654     0.11900
H1521       H  0.65190183  0.91114676  0.67251903     0.11300
H1522       H  0.60777815  0.93349122  0.64002763     0.11600
H1523       H  0.68528716  0.86507497  0.69054853     0.14300
H1524       H  0.69147780  0.80835176  0.63429817     0.13100
H1525       H  0.57051333  0.88992035  0.55736747     0.10800
H1526       H  0.56375043  0.94557038  0.61491808     0.12800
C1527       C  0.86735908  0.65363863  0.64780767     0.18900
C1528       C  0.88587593  0.62702635  0.66146791    -0.19200
C1529       C  0.89599246  0.60210813  0.63738575    -0.11500
C1530       C  0.88821332  0.60344269  0.59857030     0.21100
C1531       C  0.86973181  0.63010937  0.58488821    -0.20900
C1532       C  0.85956167  0.65500222  0.60901077    -0.11700
C1533       C  0.89962725  0.57842866  0.57122201    -0.15900
C1534       C  0.92388170  0.55885862  0.57806719    -0.29700
C1535       C  0.85587141  0.67851931  0.67522143    -0.04000
C1536       C  0.83087639  0.69699097  0.66908207    -0.40500
H1537       H  0.89209132  0.62509431  0.69118865     0.12300
H1538       H  0.90948891  0.58169790  0.64971887     0.11900
H1539       H  0.86351052  0.63204166  0.55517407     0.11300
H1540       H  0.84598848  0.67541980  0.59681954     0.11600
H1541       H  0.88981324  0.57873193  0.54303167     0.14300
H1542       H  0.93586418  0.56052158  0.60454289     0.13100
H1543       H  0.86620896  0.67875678  0.70307022     0.10800
H1544       H  0.81848023  0.69459126  0.64302091     0.12800
C1545       C  0.86537813  0.85599661  0.84746224     0.18900
C1546       C  0.87847524  0.88706823  0.83643603    -0.19200
C1547       C  0.89083538  0.90755178  0.86355364    -0.11500
C1548       C  0.89084346  0.89706678  0.90239622     0.21100
C1549       C  0.87784764  0.86592054  0.91337023    -0.20900
C1550       C  0.86545358  0.84546985  0.88626487    -0.11700
C1551       C  0.90527235  0.91724080  0.93186181    -0.15900
C1552       C  0.92914978  0.93665075  0.92370065    -0.29700
C1553       C  0.85054791  0.83598186  0.81822050    -0.04000
C1554       C  0.82588780  0.81792790  0.82653516    -0.40500
H1555       H  0.87849825  0.89590745  0.80683349     0.12300
H1556       H  0.90001059  0.93173681  0.85400181     0.11900
H1557       H  0.87777906  0.85707550  0.94297985     0.11300
H1558       H  0.85615388  0.82131754  0.89577151     0.11600
H1559       H  0.89868460  0.91273173  0.96145153     0.14300
H1560       H  0.93791109  0.93820589  0.89485383     0.13100
H1561       H  0.85754698  0.83960746  0.78867929     0.10800
H1562       H  0.81690265  0.81743686  0.85527912     0.12800
C1563       C  0.89964593  0.61298440  0.89799141     0.18900
C1564       C  0.88039549  0.63765375  0.91225838    -0.19200
C1565       C  0.85635246  0.65050596  0.89070084    -0.11500
C1566       C  0.85117658  0.63915036  0.85404999     0.21100
C1567       C  0.87023237  0.61429029  0.83988460    -0.20900
C1568       C  0.89434437  0.60152255  0.86137265    -0.11700
C1569       C  0.82695731  0.65344950  0.82921472    -0.15900
C1570       C  0.81686267  0.68541263  0.83139359    -0.29700
C1571       C  0.92433104  0.59936533  0.92264142    -0.04000
C1572       C  0.93727504  0.56895487  0.91837920    -0.40500
H1573       H  0.88374394  0.64674363  0.94045779     0.12300
H1574       H  0.84176693  0.66905188  0.90301851     0.11900
H1575       H  0.86687265  0.60526731  0.81165598     0.11300
H1576       H  0.90892063  0.58313733  0.84880585     0.11600
H1577       H  0.81996616  0.63884416  0.80546476     0.14300
H1578       H  0.82572364  0.70149469  0.85269671     0.13100
H1579       H  0.92969502  0.61307534  0.94774844     0.10800
H1580       H  0.93037023  0.55323293  0.89566514     0.12800
C1581       C  0.60597452  0.89396529  0.89682449     0.18900
C1582       C  0.59714557  0.86662293  0.87570367    -0.19200
C1583       C  0.61833825  0.84739791  0.85696067    -0.11500
C1584       C  0.64879202  0.85557842  0.85870757     0.21100
C1585       C  0.65766825  0.88256624  0.88028723    -0.20900
C1586       C  0.63649317  0.90182769  0.89895497    -0.11700
C1587       C  0.67204722  0.83692916  0.83832324    -0.15900
C1588       C  0.66661061  0.81945179  0.80739128    -0.29700
C1589       C  0.58257684  0.91377519  0.91563788    -0.04000
C1590       C  0.58789265  0.93361801  0.94469266    -0.40500
H1591       H  0.57376535  0.85999296  0.87387349     0.12300
H1592       H  0.61073489  0.82609584  0.84156733     0.11900
H1593       H  0.68104147  0.88927842  0.88198103     0.11300
H1594       H  0.64421789  0.92319639  0.91411386     0.11600
H1595       H  0.69496813  0.83955453  0.84780714     0.14300
H1596       H  0.64422431  0.81762276  0.79607458     0.13100
H1597       H  0.55969462  0.91052450  0.90631747     0.10800
H1598       H  0.61017581  0.93618375  0.95604730     0.12800
C1599       C  0.90202290  0.88970172  0.60249635     0.18900
C1600       C  0.87916058  0.87092212  0.58651525    -0.19200
C1601       C  0.85505664  0.85892941  0.60869460    -0.11500
C1602       C  0.85346589  0.86509823  0.64768589     0.21100
C1603       C  0.87632685  0.88390955  0.66367318    -0.20900
C1604       C  0.90042289  0.89594570  0.64146834    -0.11700
C1605       C  0.82874902  0.85211308  0.67281861    -0.15900
C1606       C  0.81172063  0.82526851  0.66528064    -0.29700
C1607       C  0.92676132  0.90252851  0.57734227    -0.04000
C1608       C  0.94340781  0.92977383  0.58439288    -0.40500
H1609       H  0.87971800  0.86590697  0.55651766     0.12300
H1610       H  0.83763833  0.84525291  0.59499259     0.11900
H1611       H  0.87577405  0.88891215  0.69366584     0.11300
H1612       H  0.91784706  0.90966865  0.65510247     0.11600
H1613       H  0.82637100  0.86312214  0.70039686     0.14300
H1614       H  0.81515991  0.81195446  0.63935731     0.13100
H1615       H  0.92937496  0.89108897  0.55002415     0.10800
H1616       H  0.93966947  0.94345332  0.61000408     0.12800
loop_ 
_geom_bond_atom_site_label_1 
_geom_bond_atom_site_label_2 
_geom_bond_distance 
_geom_bond_site_symmetry_2 
_ccdc_geom_bond_type 
O1            C9   1.255       .  A
O1          Co21   1.982       .  S
O2           C10   1.271       .  A
O2         Co224   1.905       .  S
O3           C11   1.268       .  A
O3         Co831   2.014   1_554  S
O4           C12   1.291       .  A
O4         Co226   2.059       .  S
O5           C11   1.261       .  A
O5         Co628   1.991       .  S
O6           C12   1.275       .  A
O6         Co425   1.921       .  S
O7           C10   1.289       .  A
O7        Co1034   2.058       .  S
O8            C9   1.267       .  A
O8          Co23   2.019   1_554  S
C9          C194   1.477       .  S
C10          C66   1.466       .  S
C11         C104   1.485       .  S
C12         C120   1.471       .  S
O13          C26   1.239       .  A
O13        Co627   1.953       .  S
O14          C27   1.266       .  A
O14        Co426   1.999       .  S
O15          C28   1.260       .  A
O15        Co225   1.966       .  S
O16          C29   1.256       .  A
O16        Co832   2.020       .  S
O17          C29   1.241       .  A
O17         Co22   1.956       .  S
O18          C28   1.276       .  A
O18        Co223   2.036       .  S
O19          C26   1.255       .  A
O19         Co24   2.011       .  S
O20          C27   1.263       .  A
O20       Co1033   1.966       .  S
Co21        O410   1.923       .  S
Co21        O619   1.954   1_554  S
Co21        O220   2.036   1_554  S
Co21         O25   1.932   1_554  S
Co22        O204   1.910       .  S
Co22        O611   1.989   1_545  S
Co22        O418   2.001   1_545  S
Co22       O1439   1.936   1_545  S
Co23        O811   2.011   1_556  S
Co23        O217   1.965       .  S
Co23       O1030   1.967       .  S
Co23         O25   2.080       .  S
Co24        O206   2.058       .  S
Co24       O1017   2.054       .  S
Co24        O824   2.020       .  S
Co24        O631   2.245   1_545  S
O25       Co1436   1.937   1_556  S
O25        Co630   2.245   1_556  S
C26         C158   1.471       .  S
C27         C176   1.462       .  S
C28         C138   1.471       .  S
C29          C84   1.476       .  S
O30          C38   1.276       .  A
O30         Co50   2.035       .  S
O31          C39   1.241       .  A
O31         Co51   1.954       .  S
O32          C40   1.263       .  A
O32         Co52   1.965       .  S
O33          C41   1.255       .  A
O33         Co53   2.013       .  S
O34          C40   1.265       .  A
O34         Co51   1.999       .  S
O35          C41   1.239       .  A
O35         Co50   1.955       .  S
O36          C39   1.257       .  A
O36         Co53   2.020       .  S
O37          C38   1.261       .  A
O37         Co52   1.966       .  S
C38         C140   1.472       .  S
C39          C86   1.476       .  S
C40         C174   1.462       .  S
C41         C156   1.473       .  S
O42          C55   1.275       .  A
O42         Co50   1.917       .  S
O43          C56   1.261       .  A
O43         Co51   1.988       .  S
O44          C57   1.267       .  A
O44         Co52   2.018       .  S
O45          C58   1.291       .  A
O45         Co53   2.065       .  S
O46          C58   1.269       .  A
O46         Co51   1.902       .  S
O47          C57   1.255       .  A
O47         Co50   1.983       .  S
O48          C55   1.292       .  A
O48         Co53   2.062       .  S
O49          C56   1.269       .  A
O49         Co52   2.016       .  S
Co50         O54   1.928       .  S
Co51         O54   1.935       .  S
Co52         O54   2.080       .  S
Co53         O54   2.245       .  S
C55         C122   1.470       .  S
C56         C102   1.485       .  S
C57         C192   1.477       .  S
C58          C68   1.466       .  S
C59          C67   1.483       .  S
C59          C60   1.401       .  A
C59          C64   1.409       .  A
C60          C61   1.398       .  A
C60          H69   1.083       .  S
C61          C62   1.410       .  A
C61          H70   1.081       .  S
C62          C65   1.482       .  S
C62          C63   1.398       .  A
C63          C64   1.395       .  A
C63          H71   1.084       .  S
C64          H72   1.082       .  S
C65          H73   1.087       .  S
C65          C66   1.339       .  D
C66          H74   1.085       .  S
C67          H75   1.087       .  S
C67          C68   1.342       .  D
C68          H76   1.085       .  S
C77          C85   1.492       .  S
C77          C78   1.403       .  A
C77          C82   1.409       .  A
C78          C79   1.400       .  A
C78          H87   1.083       .  S
C79          C80   1.409       .  A
C79          H88   1.081       .  S
C80          C83   1.493       .  S
C80          C81   1.404       .  A
C81          C82   1.401       .  A
C81          H89   1.083       .  S
C82          H90   1.081       .  S
C83          H91   1.087       .  S
C83          C84   1.345       .  D
C84          H92   1.085       .  S
C85          H93   1.087       .  S
C85          C86   1.344       .  D
C86          H94   1.085       .  S
C95         C103   1.496       .  S
C95          C96   1.408       .  A
C95         C100   1.407       .  A
C96          C97   1.402       .  A
C96         H105   1.083       .  S
C97          C98   1.407       .  A
C97         H106   1.080       .  S
C98         C101   1.496       .  S
C98          C99   1.407       .  A
C99         C100   1.402       .  A
C99         H107   1.083       .  S
C100        H108   1.080       .  S
C101        H109   1.087       .  S
C101        C102   1.354       .  D
C102        H110   1.084       .  S
C103        H111   1.087       .  S
C103        C104   1.355       .  D
C104        H112   1.084       .  S
C113        C121   1.494       .  S
C113        C114   1.404       .  A
C113        C118   1.411       .  A
C114        C115   1.399       .  A
C114        H123   1.084       .  S
C115        C116   1.409       .  A
C115        H124   1.082       .  S
C116        C119   1.492       .  S
C116        C117   1.403       .  A
C117        C118   1.400       .  A
C117        H125   1.084       .  S
C118        H126   1.080       .  S
C119        H127   1.088       .  S
C119        C120   1.343       .  D
C120        H128   1.085       .  S
C121        H129   1.088       .  S
C121        C122   1.343       .  D
C122        H130   1.083       .  S
C131        C139   1.488       .  S
C131        C132   1.402       .  A
C131        C136   1.408       .  A
C132        C133   1.400       .  A
C132        H141   1.084       .  S
C133        C134   1.410       .  A
C133        H142   1.082       .  S
C134        C137   1.491       .  S
C134        C135   1.403       .  A
C135        C136   1.400       .  A
C135        H143   1.084       .  S
C136        H144   1.082       .  S
C137        H145   1.088       .  S
C137        C138   1.342       .  D
C138        H146   1.085       .  S
C139        H147   1.087       .  S
C139        C140   1.341       .  D
C140        H148   1.086       .  S
C149        C157   1.490       .  S
C149        C150   1.404       .  A
C149        C154   1.409       .  A
C150        C151   1.399       .  A
C150        H159   1.083       .  S
C151        C152   1.408       .  A
C151        H160   1.081       .  S
C152        C155   1.490       .  S
C152        C153   1.403       .  A
C153        C154   1.399       .  A
C153        H161   1.084       .  S
C154        H162   1.081       .  S
C155        H163   1.087       .  S
C155        C156   1.344       .  D
C156        H164   1.085       .  S
C157        H165   1.087       .  S
C157        C158   1.344       .  D
C158        H166   1.084       .  S
C167        C175   1.472       .  S
C167        C168   1.401       .  A
C167        C172   1.406       .  A
C168        C169   1.392       .  A
C168        H177   1.083       .  S
C169        C170   1.405       .  A
C169        H178   1.082       .  S
C170        C173   1.470       .  S
C170        C171   1.400       .  A
C171        C172   1.391       .  A
C171        H179   1.083       .  S
C172        H180   1.081       .  S
C173        H181   1.088       .  S
C173        C174   1.341       .  D
C174        H182   1.085       .  S
C175        H183   1.088       .  S
C175        C176   1.342       .  D
C176        H184   1.085       .  S
C185        C193   1.490       .  S
C185        C186   1.405       .  A
C185        C190   1.407       .  A
C186        C187   1.400       .  A
C186        H195   1.084       .  S
C187        C188   1.407       .  A
C187        H196   1.081       .  S
C188        C191   1.491       .  S
C188        C189   1.405       .  A
C189        C190   1.399       .  A
C189        H197   1.084       .  S
C190        H198   1.081       .  S
C191        H199   1.087       .  S
C191        C192   1.348       .  D
C192        H200   1.084       .  S
C193        H201   1.087       .  S
C193        C194   1.348       .  D
C194        H202   1.084       .  S
O203        C211   1.256       .  A
O203       Co223   1.983       .  S
O204        C212   1.271       .  A
O205        C213   1.268       .  A
O205      Co1033   2.014       .  S
O206        C214   1.291       .  A
O207        C213   1.262       .  A
O207       Co426   1.990       .  S
O208        C214   1.275       .  A
O208       Co627   1.923       .  S
O209        C212   1.289       .  A
O209       Co832   2.059       .  S
O210        C211   1.267       .  A
O210       Co225   2.019       .  S
C211        C396   1.478       .  S
C212        C268   1.469       .  S
C213        C306   1.485       .  S
C214        C322   1.473       .  S
O215        C228   1.239       .  A
O215       Co425   1.953   1_556  S
O216        C229   1.266       .  A
O216       Co628   2.002   1_556  S
O217        C230   1.260       .  A
O218        C231   1.257       .  A
O218      Co1034   2.020   1_556  S
O219        C231   1.241       .  A
O219       Co224   1.957   1_556  S
O220        C230   1.276       .  A
O221        C228   1.256       .  A
O221       Co226   2.013   1_556  S
O222        C229   1.264       .  A
O222       Co831   1.967       .  S
Co223       O612   1.921       .  S
Co223       O417   1.954       .  S
Co223       O227   1.934       .  S
Co224       O409   1.991   1_545  S
Co224       O620   1.999   1_544  S
Co224      O1237   1.934   1_544  S
Co225      O1013   2.014       .  S
Co225       O828   1.968       .  S
Co225       O227   2.081       .  S
Co226       O815   2.062       .  S
Co226      O1026   2.020   1_554  S
Co226       O429   2.247   1_544  S
O227      Co1234   1.938       .  S
O227       Co428   2.245       .  S
C228        C360   1.471       .  S
C229        C378   1.465       .  S
C230        C340   1.472       .  S
C231        C286   1.476       .  S
O232        C240   1.276       .  A
O232       Co252   2.034       .  S
O233        C241   1.241       .  A
O233       Co253   1.954       .  S
O234        C242   1.263       .  A
O234       Co254   1.967       .  S
O235        C243   1.255       .  A
O235       Co255   2.012       .  S
O236        C242   1.266       .  A
O236       Co253   2.003       .  S
O237        C243   1.239       .  A
O237       Co252   1.956       .  S
O238        C241   1.258       .  A
O238       Co255   2.022       .  S
O239        C240   1.261       .  A
O239       Co254   1.965       .  S
C240        C342   1.471       .  S
C241        C288   1.476       .  S
C242        C376   1.465       .  S
C243        C358   1.473       .  S
O244        C257   1.276       .  A
O244       Co252   1.918       .  S
O245        C258   1.261       .  A
O245       Co253   1.988       .  S
O246        C259   1.266       .  A
O246       Co254   2.016       .  S
O247        C260   1.291       .  A
O247       Co255   2.063       .  S
O248        C260   1.269       .  A
O248       Co253   1.906       .  S
O249        C259   1.256       .  A
O249       Co252   1.984       .  S
O250        C257   1.293       .  A
O250       Co255   2.065       .  S
O251        C258   1.269       .  A
O251       Co254   2.018       .  S
Co252       O256   1.931       .  S
Co253       O256   1.935       .  S
Co254       O256   2.081       .  S
Co255       O256   2.245       .  S
C257        C324   1.473       .  S
C258        C304   1.484       .  S
C259        C394   1.477       .  S
C260        C270   1.468       .  S
C261        C269   1.485       .  S
C261        C262   1.401       .  A
C261        C266   1.409       .  A
C262        C263   1.399       .  A
C262        H271   1.083       .  S
C263        C264   1.411       .  A
C263        H272   1.081       .  S
C264        C267   1.485       .  S
C264        C265   1.399       .  A
C265        C266   1.396       .  A
C265        H273   1.084       .  S
C266        H274   1.082       .  S
C267        H275   1.088       .  S
C267        C268   1.340       .  D
C268        H276   1.085       .  S
C269        H277   1.087       .  S
C269        C270   1.342       .  D
C270        H278   1.085       .  S
C279        C287   1.492       .  S
C279        C280   1.403       .  A
C279        C284   1.409       .  A
C280        C281   1.400       .  A
C280        H289   1.084       .  S
C281        C282   1.409       .  A
C281        H290   1.082       .  S
C282        C285   1.494       .  S
C282        C283   1.404       .  A
C283        C284   1.401       .  A
C283        H291   1.083       .  S
C284        H292   1.081       .  S
C285        H293   1.087       .  S
C285        C286   1.346       .  D
C286        H294   1.085       .  S
C287        H295   1.087       .  S
C287        C288   1.344       .  D
C288        H296   1.085       .  S
C297        C305   1.496       .  S
C297        C298   1.408       .  A
C297        C302   1.407       .  A
C298        C299   1.402       .  A
C298        H307   1.083       .  S
C299        C300   1.408       .  A
C299        H308   1.080       .  S
C300        C303   1.496       .  S
C300        C301   1.407       .  A
C301        C302   1.401       .  A
C301        H309   1.084       .  S
C302        H310   1.080       .  S
C303        H311   1.087       .  S
C303        C304   1.353       .  D
C304        H312   1.083       .  S
C305        H313   1.087       .  S
C305        C306   1.355       .  D
C306        H314   1.083       .  S
C315        C323   1.494       .  S
C315        C316   1.403       .  A
C315        C320   1.410       .  A
C316        C317   1.400       .  A
C316        H325   1.084       .  S
C317        C318   1.410       .  A
C317        H326   1.081       .  S
C318        C321   1.494       .  S
C318        C319   1.404       .  A
C319        C320   1.401       .  A
C319        H327   1.083       .  S
C320        H328   1.081       .  S
C321        H329   1.088       .  S
C321        C322   1.344       .  D
C322        H330   1.084       .  S
C323        H331   1.088       .  S
C323        C324   1.343       .  D
C324        H332   1.084       .  S
C333        C341   1.488       .  S
C333        C334   1.402       .  A
C333        C338   1.409       .  A
C334        C335   1.400       .  A
C334        H343   1.084       .  S
C335        C336   1.410       .  A
C335        H344   1.082       .  S
C336        C339   1.491       .  S
C336        C337   1.403       .  A
C337        C338   1.400       .  A
C337        H345   1.084       .  S
C338        H346   1.082       .  S
C339        H347   1.087       .  S
C339        C340   1.342       .  D
C340        H348   1.086       .  S
C341        H349   1.087       .  S
C341        C342   1.341       .  D
C342        H350   1.086       .  S
C351        C359   1.488       .  S
C351        C352   1.404       .  A
C351        C356   1.408       .  A
C352        C353   1.399       .  A
C352        H361   1.084       .  S
C353        C354   1.408       .  A
C353        H362   1.082       .  S
C354        C357   1.488       .  S
C354        C355   1.403       .  A
C355        C356   1.399       .  A
C355        H363   1.084       .  S
C356        H364   1.081       .  S
C357        H365   1.088       .  S
C357        C358   1.344       .  D
C358        H366   1.085       .  S
C359        H367   1.088       .  S
C359        C360   1.344       .  D
C360        H368   1.085       .  S
C369        C377   1.474       .  S
C369        C370   1.401       .  A
C369        C374   1.405       .  A
C370        C371   1.393       .  A
C370        H379   1.083       .  S
C371        C372   1.405       .  A
C371        H380   1.082       .  S
C372        C375   1.474       .  S
C372        C373   1.402       .  A
C373        C374   1.393       .  A
C373        H381   1.083       .  S
C374        H382   1.081       .  S
C375        H383   1.088       .  S
C375        C376   1.343       .  D
C376        H384   1.084       .  S
C377        H385   1.088       .  S
C377        C378   1.342       .  D
C378        H386   1.084       .  S
C387        C395   1.488       .  S
C387        C388   1.405       .  A
C387        C392   1.407       .  A
C388        C389   1.399       .  A
C388        H397   1.084       .  S
C389        C390   1.406       .  A
C389        H398   1.081       .  S
C390        C393   1.490       .  S
C390        C391   1.406       .  A
C391        C392   1.401       .  A
C391        H399   1.083       .  S
C392        H400   1.081       .  S
C393        H401   1.087       .  S
C393        C394   1.349       .  D
C394        H402   1.084       .  S
C395        H403   1.087       .  S
C395        C396   1.348       .  D
C396        H404   1.085       .  S
O405        C413   1.254       .  A
O405       Co425   1.981   1_565  S
O406        C414   1.271       .  A
O406       Co628   1.904       .  S
O407        C415   1.268       .  A
O407      Co1235   2.013   1_554  S
O408        C416   1.290       .  A
O408       Co630   2.056       .  S
O409        C415   1.262       .  A
O410        C416   1.275       .  A
O411        C414   1.290       .  A
O411      Co1438   2.059       .  S
O412        C413   1.267       .  A
O412       Co427   2.018   1_554  S
C413        C598   1.475       .  S
C414        C470   1.465       .  S
C415        C508   1.484       .  S
C416        C524   1.471       .  S
O417        C430   1.239       .  A
O418        C431   1.267       .  A
O419        C432   1.260       .  A
O419       Co629   1.965       .  S
O420        C433   1.256       .  A
O420      Co1236   2.018       .  S
O421        C433   1.241       .  A
O421       Co426   1.957       .  S
O422        C432   1.276       .  A
O422       Co627   2.038   1_565  S
O423        C430   1.255       .  A
O423       Co428   2.011       .  S
O424        C431   1.264       .  A
O424      Co1437   1.968       .  S
Co425       O624   2.036   1_544  S
Co425       O429   1.929   1_544  S
Co426       O608   1.912       .  S
Co426      O1035   1.937       .  S
Co427      O1215   2.011   1_556  S
Co427       O621   1.966       .  S
Co427      O1434   1.966       .  S
Co427       O429   2.082       .  S
Co428       O610   2.062       .  S
Co428      O1421   2.057       .  S
Co428      O1228   2.021       .  S
O429      Co1032   1.932   1_566  S
C430        C562   1.471       .  S
C431        C580   1.464       .  S
C432        C542   1.472       .  S
C433        C488   1.476       .  S
O434        C442   1.276       .  A
O434       Co454   2.036       .  S
O435        C443   1.241       .  A
O435       Co455   1.954       .  S
O436        C444   1.262       .  A
O436       Co456   1.965       .  S
O437        C445   1.255       .  A
O437       Co457   2.013       .  S
O438        C444   1.265       .  A
O438       Co455   2.001       .  S
O439        C445   1.240       .  A
O439       Co454   1.955       .  S
O440        C443   1.257       .  A
O440       Co457   2.020       .  S
O441        C442   1.261       .  A
O441       Co456   1.967       .  S
C442        C544   1.473       .  S
C443        C490   1.475       .  S
C444        C578   1.463       .  S
C445        C560   1.472       .  S
O446        C459   1.275       .  A
O446       Co454   1.917       .  S
O447        C460   1.261       .  A
O447       Co455   1.988       .  S
O448        C461   1.266       .  A
O448       Co456   2.015       .  S
O449        C462   1.291       .  A
O449       Co457   2.065       .  S
O450        C462   1.269       .  A
O450       Co455   1.902       .  S
O451        C461   1.255       .  A
O451       Co454   1.982       .  S
O452        C459   1.293       .  A
O452       Co457   2.063       .  S
O453        C460   1.269       .  A
O453       Co456   2.017       .  S
Co454       O458   1.928       .  S
Co455       O458   1.933       .  S
Co456       O458   2.081       .  S
Co457       O458   2.246       .  S
C459        C526   1.471       .  S
C460        C506   1.484       .  S
C461        C596   1.475       .  S
C462        C472   1.466       .  S
C463        C471   1.484       .  S
C463        C464   1.401       .  A
C463        C468   1.409       .  A
C464        C465   1.398       .  A
C464        H473   1.083       .  S
C465        C466   1.410       .  A
C465        H474   1.081       .  S
C466        C469   1.482       .  S
C466        C467   1.399       .  A
C467        C468   1.394       .  A
C467        H475   1.084       .  S
C468        H476   1.082       .  S
C469        H477   1.088       .  S
C469        C470   1.339       .  D
C470        H478   1.085       .  S
C471        H479   1.087       .  S
C471        C472   1.342       .  D
C472        H480   1.085       .  S
C481        C489   1.492       .  S
C481        C482   1.404       .  A
C481        C486   1.409       .  A
C482        C483   1.401       .  A
C482        H491   1.083       .  S
C483        C484   1.409       .  A
C483        H492   1.082       .  S
C484        C487   1.492       .  S
C484        C485   1.403       .  A
C485        C486   1.400       .  A
C485        H493   1.084       .  S
C486        H494   1.082       .  S
C487        H495   1.087       .  S
C487        C488   1.345       .  D
C488        H496   1.085       .  S
C489        H497   1.087       .  S
C489        C490   1.345       .  D
C490        H498   1.085       .  S
C499        C507   1.496       .  S
C499        C500   1.407       .  A
C499        C504   1.407       .  A
C500        C501   1.402       .  A
C500        H509   1.083       .  S
C501        C502   1.408       .  A
C501        H510   1.080       .  S
C502        C505   1.495       .  S
C502        C503   1.407       .  A
C503        C504   1.401       .  A
C503        H511   1.084       .  S
C504        H512   1.081       .  S
C505        H513   1.087       .  S
C505        C506   1.353       .  D
C506        H514   1.083       .  S
C507        H515   1.087       .  S
C507        C508   1.355       .  D
C508        H516   1.084       .  S
C517        C525   1.491       .  S
C517        C518   1.403       .  A
C517        C522   1.409       .  A
C518        C519   1.400       .  A
C518        H527   1.084       .  S
C519        C520   1.410       .  A
C519        H528   1.081       .  S
C520        C523   1.494       .  S
C520        C521   1.404       .  A
C521        C522   1.400       .  A
C521        H529   1.084       .  S
C522        H530   1.081       .  S
C523        H531   1.088       .  S
C523        C524   1.343       .  D
C524        H532   1.084       .  S
C525        H533   1.088       .  S
C525        C526   1.343       .  D
C526        H534   1.085       .  S
C535        C543   1.490       .  S
C535        C536   1.402       .  A
C535        C540   1.408       .  A
C536        C537   1.401       .  A
C536        H545   1.084       .  S
C537        C538   1.410       .  A
C537        H546   1.082       .  S
C538        C541   1.493       .  S
C538        C539   1.403       .  A
C539        C540   1.400       .  A
C539        H547   1.084       .  S
C540        H548   1.083       .  S
C541        H549   1.088       .  S
C541        C542   1.343       .  D
C542        H550   1.085       .  S
C543        H551   1.087       .  S
C543        C544   1.342       .  D
C544        H552   1.086       .  S
C553        C561   1.488       .  S
C553        C554   1.403       .  A
C553        C558   1.408       .  A
C554        C555   1.399       .  A
C554        H563   1.083       .  S
C555        C556   1.408       .  A
C555        H564   1.081       .  S
C556        C559   1.489       .  S
C556        C557   1.404       .  A
C557        C558   1.399       .  A
C557        H565   1.084       .  S
C558        H566   1.082       .  S
C559        H567   1.087       .  S
C559        C560   1.344       .  D
C560        H568   1.085       .  S
C561        H569   1.088       .  S
C561        C562   1.344       .  D
C562        H570   1.085       .  S
C571        C579   1.475       .  S
C571        C572   1.402       .  A
C571        C576   1.406       .  A
C572        C573   1.392       .  A
C572        H581   1.083       .  S
C573        C574   1.405       .  A
C573        H582   1.081       .  S
C574        C577   1.472       .  S
C574        C575   1.401       .  A
C575        C576   1.392       .  A
C575        H583   1.083       .  S
C576        H584   1.081       .  S
C577        H585   1.088       .  S
C577        C578   1.342       .  D
C578        H586   1.085       .  S
C579        H587   1.088       .  S
C579        C580   1.342       .  D
C580        H588   1.084       .  S
C589        C597   1.490       .  S
C589        C590   1.405       .  A
C589        C594   1.407       .  A
C590        C591   1.399       .  A
C590        H599   1.084       .  S
C591        C592   1.408       .  A
C591        H600   1.080       .  S
C592        C595   1.490       .  S
C592        C593   1.405       .  A
C593        C594   1.398       .  A
C593        H601   1.084       .  S
C594        H602   1.080       .  S
C595        H603   1.087       .  S
C595        C596   1.348       .  D
C596        H604   1.083       .  S
C597        H605   1.087       .  S
C597        C598   1.347       .  D
C598        H606   1.083       .  S
O607        C615   1.256       .  A
O607       Co627   1.982   1_565  S
O608        C616   1.271       .  A
O609        C617   1.268       .  A
O609      Co1437   2.012       .  S
O610        C618   1.292       .  A
O611        C617   1.261       .  A
O612        C618   1.275       .  A
O613        C616   1.289       .  A
O613      Co1236   2.059       .  S
O614        C615   1.268       .  A
O614       Co629   2.020       .  S
C615        C800   1.478       .  S
C616        C672   1.469       .  S
C617        C710   1.484       .  S
C618        C726   1.473       .  S
O619        C632   1.239       .  A
O620        C633   1.266       .  A
O621        C634   1.260       .  A
O622        C635   1.257       .  A
O622      Co1438   2.021   1_556  S
O623        C635   1.241       .  A
O623       Co628   1.957   1_556  S
O624        C634   1.275       .  A
O625        C632   1.255       .  A
O625       Co630   2.012   1_556  S
O626        C633   1.264       .  A
O626      Co1235   1.968       .  S
Co627       O631   1.934   1_545  S
Co628       O833   1.934   1_554  S
Co629      O1417   2.013       .  S
Co629      O1232   1.968       .  S
Co629       O631   2.080       .  S
Co630      O1219   2.058       .  S
Co630      O1430   2.019   1_554  S
O631       Co830   1.939   1_565  S
C632        C764   1.472       .  S
C633        C782   1.464       .  S
C634        C744   1.472       .  S
C635        C690   1.477       .  S
O636        C644   1.276       .  A
O636       Co656   2.036       .  S
O637        C645   1.241       .  A
O637       Co657   1.954       .  S
O638        C646   1.262       .  A
O638       Co658   1.967       .  S
O639        C647   1.254       .  A
O639       Co659   2.013       .  S
O640        C646   1.265       .  A
O640       Co657   2.002       .  S
O641        C647   1.239       .  A
O641       Co656   1.955       .  S
O642        C645   1.258       .  A
O642       Co659   2.021       .  S
O643        C644   1.260       .  A
O643       Co658   1.964       .  S
C644        C746   1.471       .  S
C645        C692   1.476       .  S
C646        C780   1.465       .  S
C647        C762   1.473       .  S
O648        C661   1.276       .  A
O648       Co656   1.919       .  S
O649        C662   1.261       .  A
O649       Co657   1.987       .  S
O650        C663   1.266       .  A
O650       Co658   2.018       .  S
O651        C664   1.291       .  A
O651       Co659   2.063       .  S
O652        C664   1.269       .  A
O652       Co657   1.908       .  S
O653        C663   1.255       .  A
O653       Co656   1.983       .  S
O654        C661   1.293       .  A
O654       Co659   2.065       .  S
O655        C662   1.269       .  A
O655       Co658   2.015       .  S
Co656       O660   1.931       .  S
Co657       O660   1.936       .  S
Co658       O660   2.081       .  S
Co659       O660   2.244       .  S
C661        C728   1.473       .  S
C662        C708   1.483       .  S
C663        C798   1.478       .  S
C664        C674   1.468       .  S
C665        C673   1.485       .  S
C665        C666   1.401       .  A
C665        C670   1.410       .  A
C666        C667   1.399       .  A
C666        H675   1.083       .  S
C667        C668   1.411       .  A
C667        H676   1.081       .  S
C668        C671   1.486       .  S
C668        C669   1.399       .  A
C669        C670   1.396       .  A
C669        H677   1.084       .  S
C670        H678   1.082       .  S
C671        H679   1.087       .  S
C671        C672   1.340       .  D
C672        H680   1.085       .  S
C673        H681   1.087       .  S
C673        C674   1.342       .  D
C674        H682   1.086       .  S
C683        C691   1.493       .  S
C683        C684   1.404       .  A
C683        C688   1.409       .  A
C684        C685   1.401       .  A
C684        H693   1.083       .  S
C685        C686   1.409       .  A
C685        H694   1.082       .  S
C686        C689   1.494       .  S
C686        C687   1.404       .  A
C687        C688   1.401       .  A
C687        H695   1.083       .  S
C688        H696   1.082       .  S
C689        H697   1.087       .  S
C689        C690   1.346       .  D
C690        H698   1.085       .  S
C691        H699   1.087       .  S
C691        C692   1.345       .  D
C692        H700   1.085       .  S
C701        C709   1.495       .  S
C701        C702   1.407       .  A
C701        C706   1.406       .  A
C702        C703   1.402       .  A
C702        H711   1.083       .  S
C703        C704   1.407       .  A
C703        H712   1.079       .  S
C704        C707   1.495       .  S
C704        C705   1.407       .  A
C705        C706   1.401       .  A
C705        H713   1.083       .  S
C706        H714   1.080       .  S
C707        H715   1.087       .  S
C707        C708   1.353       .  D
C708        H716   1.083       .  S
C709        H717   1.087       .  S
C709        C710   1.355       .  D
C710        H718   1.083       .  S
C719        C727   1.494       .  S
C719        C720   1.403       .  A
C719        C724   1.410       .  A
C720        C721   1.400       .  A
C720        H729   1.084       .  S
C721        C722   1.409       .  A
C721        H730   1.082       .  S
C722        C725   1.494       .  S
C722        C723   1.404       .  A
C723        C724   1.402       .  A
C723        H731   1.083       .  S
C724        H732   1.081       .  S
C725        H733   1.088       .  S
C725        C726   1.344       .  D
C726        H734   1.085       .  S
C727        H735   1.088       .  S
C727        C728   1.343       .  D
C728        H736   1.084       .  S
C737        C745   1.490       .  S
C737        C738   1.402       .  A
C737        C742   1.409       .  A
C738        C739   1.400       .  A
C738        H747   1.084       .  S
C739        C740   1.409       .  A
C739        H748   1.082       .  S
C740        C743   1.491       .  S
C740        C741   1.403       .  A
C741        C742   1.400       .  A
C741        H749   1.084       .  S
C742        H750   1.082       .  S
C743        H751   1.087       .  S
C743        C744   1.342       .  D
C744        H752   1.086       .  S
C745        H753   1.088       .  S
C745        C746   1.341       .  D
C746        H754   1.086       .  S
C755        C763   1.489       .  S
C755        C756   1.404       .  A
C755        C760   1.408       .  A
C756        C757   1.399       .  A
C756        H765   1.083       .  S
C757        C758   1.408       .  A
C757        H766   1.081       .  S
C758        C761   1.489       .  S
C758        C759   1.403       .  A
C759        C760   1.399       .  A
C759        H767   1.084       .  S
C760        H768   1.081       .  S
C761        H769   1.088       .  S
C761        C762   1.344       .  D
C762        H770   1.085       .  S
C763        H771   1.088       .  S
C763        C764   1.344       .  D
C764        H772   1.084       .  S
C773        C781   1.473       .  S
C773        C774   1.401       .  A
C773        C778   1.406       .  A
C774        C775   1.392       .  A
C774        H783   1.083       .  S
C775        C776   1.405       .  A
C775        H784   1.081       .  S
C776        C779   1.474       .  S
C776        C777   1.401       .  A
C777        C778   1.393       .  A
C777        H785   1.083       .  S
C778        H786   1.081       .  S
C779        H787   1.088       .  S
C779        C780   1.343       .  D
C780        H788   1.084       .  S
C781        H789   1.088       .  S
C781        C782   1.342       .  D
C782        H790   1.085       .  S
C791        C799   1.491       .  S
C791        C792   1.405       .  A
C791        C796   1.407       .  A
C792        C793   1.399       .  A
C792        H801   1.084       .  S
C793        C794   1.407       .  A
C793        H802   1.081       .  S
C794        C797   1.491       .  S
C794        C795   1.406       .  A
C795        C796   1.400       .  A
C795        H803   1.083       .  S
C796        H804   1.081       .  S
C797        H805   1.087       .  S
C797        C798   1.349       .  D
C798        H806   1.084       .  S
C799        H807   1.087       .  S
C799        C800   1.348       .  D
C800        H808   1.084       .  S
O809        C817   1.255       .  A
O809       Co829   1.981       .  S
O810        C818   1.270       .  A
O810      Co1032   1.904       .  S
O811        C819   1.268       .  A
O812        C820   1.291       .  A
O812      Co1034   2.057   1_655  S
O813        C819   1.262       .  A
O813      Co1436   1.990       .  S
O814        C820   1.275       .  A
O814      Co1233   1.922       .  S
O815        C818   1.290       .  A
O816        C817   1.267       .  A
O816       Co831   2.018   1_654  S
C817       C1002   1.475       .  S
C818        C874   1.466       .  S
C819        C912   1.484       .  S
C820        C928   1.471       .  S
O821        C834   1.240       .  A
O821      Co1435   1.955       .  S
O822        C835   1.267       .  A
O822      Co1234   2.002       .  S
O823        C836   1.260       .  A
O823      Co1033   1.966   1_655  S
O824        C837   1.257       .  A
O825        C837   1.241       .  A
O825       Co830   1.957       .  S
O826        C836   1.276       .  A
O826      Co1031   2.036       .  S
O827        C834   1.255       .  A
O827       Co832   2.012   1_655  S
O828        C835   1.264       .  A
Co829      O1218   1.921       .  S
Co829      O1427   1.955   1_554  S
Co829      O1028   2.035   1_554  S
Co829       O833   1.931   1_654  S
Co830      O1012   1.913       .  S
Co830      O1419   1.990   1_545  S
Co830      O1226   2.001   1_545  S
Co831      O1025   1.965   1_455  S
Co831       O833   2.081       .  S
Co832      O1014   2.057   1_455  S
Co832      O1439   2.245   1_545  S
O833      Co1438   2.246   1_556  S
C834        C966   1.472       .  S
C835        C984   1.465       .  S
C836        C946   1.472       .  S
C837        C892   1.477       .  S
O838        C846   1.276       .  A
O838       Co858   2.034       .  S
O839        C847   1.240       .  A
O839       Co859   1.953       .  S
O840        C848   1.263       .  A
O840       Co860   1.968       .  S
O841        C849   1.255       .  A
O841       Co861   2.013       .  S
O842        C848   1.265       .  A
O842       Co859   2.002       .  S
O843        C849   1.240       .  A
O843       Co858   1.956       .  S
O844        C847   1.257       .  A
O844       Co861   2.020       .  S
O845        C846   1.261       .  A
O845       Co860   1.966       .  S
C846        C948   1.472       .  S
C847        C894   1.475       .  S
C848        C982   1.465       .  S
C849        C964   1.473       .  S
O850        C863   1.275       .  A
O850       Co858   1.916       .  S
O851        C864   1.260       .  A
O851       Co859   1.988       .  S
O852        C865   1.266       .  A
O852       Co860   2.016       .  S
O853        C866   1.291       .  A
O853       Co861   2.063       .  S
O854        C866   1.269       .  A
O854       Co859   1.902       .  S
O855        C865   1.255       .  A
O855       Co858   1.982       .  S
O856        C863   1.293       .  A
O856       Co861   2.063       .  S
O857        C864   1.269       .  A
O857       Co860   2.016       .  S
Co858       O862   1.929       .  S
Co859       O862   1.933       .  S
Co860       O862   2.082       .  S
Co861       O862   2.245       .  S
C863        C930   1.470       .  S
C864        C910   1.484       .  S
C865       C1000   1.475       .  S
C866        C876   1.466       .  S
C867        C875   1.483       .  S
C867        C868   1.400       .  A
C867        C872   1.410       .  A
C868        C869   1.397       .  A
C868        H877   1.083       .  S
C869        C870   1.410       .  A
C869        H878   1.081       .  S
C870        C873   1.483       .  S
C870        C871   1.399       .  A
C871        C872   1.395       .  A
C871        H879   1.084       .  S
C872        H880   1.081       .  S
C873        H881   1.088       .  S
C873        C874   1.340       .  D
C874        H882   1.085       .  S
C875        H883   1.087       .  S
C875        C876   1.341       .  D
C876        H884   1.085       .  S
C885        C893   1.491       .  S
C885        C886   1.404       .  A
C885        C890   1.409       .  A
C886        C887   1.401       .  A
C886        H895   1.083       .  S
C887        C888   1.409       .  A
C887        H896   1.082       .  S
C888        C891   1.492       .  S
C888        C889   1.404       .  A
C889        C890   1.400       .  A
C889        H897   1.084       .  S
C890        H898   1.081       .  S
C891        H899   1.087       .  S
C891        C892   1.345       .  D
C892        H900   1.085       .  S
C893        H901   1.087       .  S
C893        C894   1.344       .  D
C894        H902   1.085       .  S
C903        C911   1.495       .  S
C903        C904   1.408       .  A
C903        C908   1.406       .  A
C904        C905   1.402       .  A
C904        H913   1.083       .  S
C905        C906   1.407       .  A
C905        H914   1.080       .  S
C906        C909   1.495       .  S
C906        C907   1.407       .  A
C907        C908   1.401       .  A
C907        H915   1.084       .  S
C908        H916   1.080       .  S
C909        H917   1.087       .  S
C909        C910   1.353       .  D
C910        H918   1.083       .  S
C911        H919   1.087       .  S
C911        C912   1.355       .  D
C912        H920   1.084       .  S
C921        C929   1.491       .  S
C921        C922   1.403       .  A
C921        C926   1.409       .  A
C922        C923   1.400       .  A
C922        H931   1.084       .  S
C923        C924   1.410       .  A
C923        H932   1.081       .  S
C924        C927   1.493       .  S
C924        C925   1.404       .  A
C925        C926   1.400       .  A
C925        H933   1.084       .  S
C926        H934   1.082       .  S
C927        H935   1.088       .  S
C927        C928   1.343       .  D
C928        H936   1.084       .  S
C929        H937   1.088       .  S
C929        C930   1.342       .  D
C930        H938   1.085       .  S
C939        C947   1.488       .  S
C939        C940   1.402       .  A
C939        C944   1.408       .  A
C940        C941   1.400       .  A
C940        H949   1.084       .  S
C941        C942   1.410       .  A
C941        H950   1.082       .  S
C942        C945   1.492       .  S
C942        C943   1.403       .  A
C943        C944   1.400       .  A
C943        H951   1.084       .  S
C944        H952   1.083       .  S
C945        H953   1.087       .  S
C945        C946   1.342       .  D
C946        H954   1.085       .  S
C947        H955   1.087       .  S
C947        C948   1.341       .  D
C948        H956   1.086       .  S
C957        C965   1.489       .  S
C957        C958   1.403       .  A
C957        C962   1.408       .  A
C958        C959   1.399       .  A
C958        H967   1.084       .  S
C959        C960   1.408       .  A
C959        H968   1.082       .  S
C960        C963   1.489       .  S
C960        C961   1.404       .  A
C961        C962   1.400       .  A
C961        H969   1.083       .  S
C962        H970   1.081       .  S
C963        H971   1.087       .  S
C963        C964   1.345       .  D
C964        H972   1.085       .  S
C965        H973   1.087       .  S
C965        C966   1.344       .  D
C966        H974   1.085       .  S
C975        C983   1.476       .  S
C975        C976   1.403       .  A
C975        C980   1.406       .  A
C976        C977   1.394       .  A
C976        H985   1.083       .  S
C977        C978   1.405       .  A
C977        H986   1.081       .  S
C978        C981   1.473       .  S
C978        C979   1.400       .  A
C979        C980   1.391       .  A
C979        H987   1.084       .  S
C980        H988   1.081       .  S
C981        H989   1.088       .  S
C981        C982   1.342       .  D
C982        H990   1.085       .  S
C983        H991   1.087       .  S
C983        C984   1.343       .  D
C984        H992   1.084       .  S
C993       C1001   1.488       .  S
C993        C994   1.405       .  A
C993        C998   1.407       .  A
C994        C995   1.399       .  A
C994       H1003   1.084       .  S
C995        C996   1.407       .  A
C995       H1004   1.081       .  S
C996        C999   1.488       .  S
C996        C997   1.405       .  A
C997        C998   1.399       .  A
C997       H1005   1.083       .  S
C998       H1006   1.081       .  S
C999       H1007   1.087       .  S
C999       C1000   1.348       .  D
C1000      H1008   1.084       .  S
C1001      H1009   1.087       .  S
C1001      C1002   1.347       .  D
C1002      H1010   1.084       .  S
O1011      C1019   1.255       .  A
O1011     Co1031   1.983       .  S
O1012      C1020   1.272       .  A
O1013      C1021   1.268       .  A
O1014      C1022   1.291       .  A
O1015      C1021   1.262       .  A
O1015     Co1234   1.990       .  S
O1016      C1022   1.275       .  A
O1016     Co1435   1.924       .  S
O1017      C1020   1.288       .  A
O1018      C1019   1.267       .  A
O1018     Co1033   2.019   1_655  S
C1019      C1204   1.478       .  S
C1020      C1076   1.468       .  S
C1021      C1114   1.484       .  S
C1022      C1130   1.473       .  S
O1023      C1036   1.239       .  A
O1023     Co1233   1.953   1_556  S
O1024      C1037   1.265       .  A
O1024     Co1436   1.998   1_556  S
O1025      C1038   1.260       .  A
O1026      C1039   1.257       .  A
O1027      C1039   1.242       .  A
O1027     Co1032   1.958   1_556  S
O1028      C1038   1.275       .  A
O1029      C1036   1.256       .  A
O1029     Co1034   2.015   1_656  S
O1030      C1037   1.264       .  A
Co1031     O1420   1.925       .  S
Co1031     O1225   1.955       .  S
Co1031     O1035   1.932   1_655  S
Co1032     O1217   1.991   1_545  S
Co1032     O1428   1.999   1_544  S
Co1033     O1035   2.081       .  S
Co1034     O1237   2.247   1_544  S
O1035     Co1236   2.245       .  S
C1036      C1168   1.472       .  S
C1037      C1186   1.462       .  S
C1038      C1148   1.471       .  S
C1039      C1094   1.477       .  S
O1040      C1048   1.276       .  A
O1040     Co1060   2.036       .  S
O1041      C1049   1.241       .  A
O1041     Co1061   1.957       .  S
O1042      C1050   1.262       .  A
O1042     Co1062   1.964       .  S
O1043      C1051   1.254       .  A
O1043     Co1063   2.012       .  S
O1044      C1050   1.265       .  A
O1044     Co1061   1.998       .  S
O1045      C1051   1.239       .  A
O1045     Co1060   1.957       .  S
O1046      C1049   1.257       .  A
O1046     Co1063   2.019       .  S
O1047      C1048   1.261       .  A
O1047     Co1062   1.965       .  S
C1048      C1150   1.472       .  S
C1049      C1096   1.477       .  S
C1050      C1184   1.461       .  S
C1051      C1166   1.473       .  S
O1052      C1065   1.277       .  A
O1052     Co1060   1.923       .  S
O1053      C1066   1.262       .  A
O1053     Co1061   1.988       .  S
O1054      C1067   1.266       .  A
O1054     Co1062   2.017       .  S
O1055      C1068   1.291       .  A
O1055     Co1063   2.064       .  S
O1056      C1068   1.269       .  A
O1056     Co1061   1.907       .  S
O1057      C1067   1.256       .  A
O1057     Co1060   1.984       .  S
O1058      C1065   1.292       .  A
O1058     Co1063   2.058       .  S
O1059      C1066   1.270       .  A
O1059     Co1062   2.019       .  S
Co1060     O1064   1.933       .  S
Co1061     O1064   1.938       .  S
Co1062     O1064   2.081       .  S
Co1063     O1064   2.244       .  S
C1065      C1132   1.472       .  S
C1066      C1112   1.486       .  S
C1067      C1202   1.478       .  S
C1068      C1078   1.468       .  S
C1069      C1077   1.486       .  S
C1069      C1070   1.402       .  A
C1069      C1074   1.410       .  A
C1070      C1071   1.400       .  A
C1070      H1079   1.083       .  S
C1071      C1072   1.411       .  A
C1071      H1080   1.081       .  S
C1072      C1075   1.484       .  S
C1072      C1073   1.398       .  A
C1073      C1074   1.395       .  A
C1073      H1081   1.084       .  S
C1074      H1082   1.082       .  S
C1075      H1083   1.087       .  S
C1075      C1076   1.339       .  D
C1076      H1084   1.086       .  S
C1077      H1085   1.087       .  S
C1077      C1078   1.342       .  D
C1078      H1086   1.086       .  S
C1087      C1095   1.492       .  S
C1087      C1088   1.403       .  A
C1087      C1092   1.409       .  A
C1088      C1089   1.400       .  A
C1088      H1097   1.084       .  S
C1089      C1090   1.408       .  A
C1089      H1098   1.082       .  S
C1090      C1093   1.494       .  S
C1090      C1091   1.405       .  A
C1091      C1092   1.402       .  A
C1091      H1099   1.083       .  S
C1092      H1100   1.082       .  S
C1093      H1101   1.087       .  S
C1093      C1094   1.346       .  D
C1094      H1102   1.085       .  S
C1095      H1103   1.087       .  S
C1095      C1096   1.344       .  D
C1096      H1104   1.085       .  S
C1105      C1113   1.497       .  S
C1105      C1106   1.408       .  A
C1105      C1110   1.407       .  A
C1106      C1107   1.403       .  A
C1106      H1115   1.083       .  S
C1107      C1108   1.408       .  A
C1107      H1116   1.080       .  S
C1108      C1111   1.497       .  S
C1108      C1109   1.407       .  A
C1109      C1110   1.402       .  A
C1109      H1117   1.084       .  S
C1110      H1118   1.080       .  S
C1111      H1119   1.087       .  S
C1111      C1112   1.354       .  D
C1112      H1120   1.084       .  S
C1113      H1121   1.087       .  S
C1113      C1114   1.355       .  D
C1114      H1122   1.084       .  S
C1123      C1131   1.496       .  S
C1123      C1124   1.403       .  A
C1123      C1128   1.411       .  A
C1124      C1125   1.400       .  A
C1124      H1133   1.084       .  S
C1125      C1126   1.410       .  A
C1125      H1134   1.081       .  S
C1126      C1129   1.495       .  S
C1126      C1127   1.403       .  A
C1127      C1128   1.401       .  A
C1127      H1135   1.084       .  S
C1128      H1136   1.080       .  S
C1129      H1137   1.088       .  S
C1129      C1130   1.343       .  D
C1130      H1138   1.085       .  S
C1131      H1139   1.088       .  S
C1131      C1132   1.344       .  D
C1132      H1140   1.083       .  S
C1141      C1149   1.490       .  S
C1141      C1142   1.403       .  A
C1141      C1146   1.410       .  A
C1142      C1143   1.400       .  A
C1142      H1151   1.084       .  S
C1143      C1144   1.409       .  A
C1143      H1152   1.082       .  S
C1144      C1147   1.490       .  S
C1144      C1145   1.402       .  A
C1145      C1146   1.400       .  A
C1145      H1153   1.084       .  S
C1146      H1154   1.082       .  S
C1147      H1155   1.087       .  S
C1147      C1148   1.341       .  D
C1148      H1156   1.086       .  S
C1149      H1157   1.088       .  S
C1149      C1150   1.342       .  D
C1150      H1158   1.086       .  S
C1159      C1167   1.491       .  S
C1159      C1160   1.404       .  A
C1159      C1164   1.409       .  A
C1160      C1161   1.399       .  A
C1160      H1169   1.084       .  S
C1161      C1162   1.408       .  A
C1161      H1170   1.082       .  S
C1162      C1165   1.488       .  S
C1162      C1163   1.403       .  A
C1163      C1164   1.399       .  A
C1163      H1171   1.084       .  S
C1164      H1172   1.080       .  S
C1165      H1173   1.087       .  S
C1165      C1166   1.344       .  D
C1166      H1174   1.085       .  S
C1167      H1175   1.088       .  S
C1167      C1168   1.344       .  D
C1168      H1176   1.084       .  S
C1177      C1185   1.472       .  S
C1177      C1178   1.401       .  A
C1177      C1182   1.406       .  A
C1178      C1179   1.391       .  A
C1178      H1187   1.084       .  S
C1179      C1180   1.405       .  A
C1179      H1188   1.081       .  S
C1180      C1183   1.471       .  S
C1180      C1181   1.400       .  A
C1181      C1182   1.391       .  A
C1181      H1189   1.083       .  S
C1182      H1190   1.081       .  S
C1183      H1191   1.087       .  S
C1183      C1184   1.341       .  D
C1184      H1192   1.085       .  S
C1185      H1193   1.088       .  S
C1185      C1186   1.341       .  D
C1186      H1194   1.085       .  S
C1195      C1203   1.490       .  S
C1195      C1196   1.405       .  A
C1195      C1200   1.407       .  A
C1196      C1197   1.399       .  A
C1196      H1205   1.084       .  S
C1197      C1198   1.407       .  A
C1197      H1206   1.081       .  S
C1198      C1201   1.491       .  S
C1198      C1199   1.406       .  A
C1199      C1200   1.400       .  A
C1199      H1207   1.083       .  S
C1200      H1208   1.081       .  S
C1201      H1209   1.087       .  S
C1201      C1202   1.350       .  D
C1202      H1210   1.084       .  S
C1203      H1211   1.087       .  S
C1203      C1204   1.348       .  D
C1204      H1212   1.084       .  S
O1213      C1221   1.254       .  A
O1213     Co1233   1.981   1_565  S
O1214      C1222   1.271       .  A
O1214     Co1436   1.908       .  S
O1215      C1223   1.267       .  A
O1216      C1224   1.291       .  A
O1216     Co1438   2.060   1_655  S
O1217      C1223   1.261       .  A
O1218      C1224   1.274       .  A
O1219      C1222   1.289       .  A
O1220      C1221   1.268       .  A
O1220     Co1235   2.021   1_654  S
C1221      C1406   1.476       .  S
C1222      C1278   1.467       .  S
C1223      C1316   1.484       .  S
C1224      C1332   1.472       .  S
O1225      C1238   1.239       .  A
O1226      C1239   1.266       .  A
O1227      C1240   1.260       .  A
O1227     Co1437   1.965   1_655  S
O1228      C1241   1.257       .  A
O1229      C1241   1.241       .  A
O1229     Co1234   1.957       .  S
O1230      C1240   1.276       .  A
O1230     Co1435   2.036   1_565  S
O1231      C1238   1.255       .  A
O1231     Co1236   2.012   1_655  S
O1232      C1239   1.264       .  A
Co1233     O1432   2.036   1_544  S
Co1233     O1237   1.930   1_644  S
Co1234     O1416   1.912       .  S
Co1235     O1429   1.965   1_455  S
Co1235     O1237   2.081       .  S
Co1236     O1418   2.056   1_455  S
C1238      C1370   1.472       .  S
C1239      C1388   1.464       .  S
C1240      C1350   1.472       .  S
C1241      C1296   1.477       .  S
O1242      C1250   1.276       .  A
O1242     Co1262   2.035       .  S
O1243      C1251   1.240       .  A
O1243     Co1263   1.953       .  S
O1244      C1252   1.263       .  A
O1244     Co1264   1.967       .  S
O1245      C1253   1.255       .  A
O1245     Co1265   2.015       .  S
O1246      C1252   1.265       .  A
O1246     Co1263   2.001       .  S
O1247      C1253   1.239       .  A
O1247     Co1262   1.955       .  S
O1248      C1251   1.257       .  A
O1248     Co1265   2.020       .  S
O1249      C1250   1.260       .  A
O1249     Co1264   1.964       .  S
C1250      C1352   1.472       .  S
C1251      C1298   1.474       .  S
C1252      C1386   1.464       .  S
C1253      C1368   1.473       .  S
O1254      C1267   1.275       .  A
O1254     Co1262   1.918       .  S
O1255      C1268   1.261       .  A
O1255     Co1263   1.988       .  S
O1256      C1269   1.267       .  A
O1256     Co1264   2.018       .  S
O1257      C1270   1.291       .  A
O1257     Co1265   2.064       .  S
O1258      C1270   1.269       .  A
O1258     Co1263   1.902       .  S
O1259      C1269   1.254       .  A
O1259     Co1262   1.981       .  S
O1260      C1267   1.292       .  A
O1260     Co1265   2.062       .  S
O1261      C1268   1.269       .  A
O1261     Co1264   2.015       .  S
Co1262     O1266   1.928       .  S
Co1263     O1266   1.933       .  S
Co1264     O1266   2.082       .  S
Co1265     O1266   2.246       .  S
C1267      C1334   1.470       .  S
C1268      C1314   1.484       .  S
C1269      C1404   1.476       .  S
C1270      C1280   1.466       .  S
C1271      C1279   1.483       .  S
C1271      C1272   1.400       .  A
C1271      C1276   1.409       .  A
C1272      C1273   1.398       .  A
C1272      H1281   1.083       .  S
C1273      C1274   1.410       .  A
C1273      H1282   1.081       .  S
C1274      C1277   1.483       .  S
C1274      C1275   1.399       .  A
C1275      C1276   1.395       .  A
C1275      H1283   1.084       .  S
C1276      H1284   1.081       .  S
C1277      H1285   1.088       .  S
C1277      C1278   1.340       .  D
C1278      H1286   1.085       .  S
C1279      H1287   1.087       .  S
C1279      C1280   1.341       .  D
C1280      H1288   1.085       .  S
C1289      C1297   1.492       .  S
C1289      C1290   1.404       .  A
C1289      C1294   1.409       .  A
C1290      C1291   1.401       .  A
C1290      H1299   1.083       .  S
C1291      C1292   1.409       .  A
C1291      H1300   1.082       .  S
C1292      C1295   1.492       .  S
C1292      C1293   1.403       .  A
C1293      C1294   1.400       .  A
C1293      H1301   1.084       .  S
C1294      H1302   1.081       .  S
C1295      H1303   1.087       .  S
C1295      C1296   1.345       .  D
C1296      H1304   1.085       .  S
C1297      H1305   1.087       .  S
C1297      C1298   1.344       .  D
C1298      H1306   1.085       .  S
C1307      C1315   1.495       .  S
C1307      C1308   1.407       .  A
C1307      C1312   1.407       .  A
C1308      C1309   1.401       .  A
C1308      H1317   1.083       .  S
C1309      C1310   1.407       .  A
C1309      H1318   1.079       .  S
C1310      C1313   1.496       .  S
C1310      C1311   1.408       .  A
C1311      C1312   1.401       .  A
C1311      H1319   1.084       .  S
C1312      H1320   1.080       .  S
C1313      H1321   1.087       .  S
C1313      C1314   1.354       .  D
C1314      H1322   1.083       .  S
C1315      H1323   1.087       .  S
C1315      C1316   1.354       .  D
C1316      H1324   1.083       .  S
C1325      C1333   1.493       .  S
C1325      C1326   1.403       .  A
C1325      C1330   1.410       .  A
C1326      C1327   1.399       .  A
C1326      H1335   1.084       .  S
C1327      C1328   1.409       .  A
C1327      H1336   1.082       .  S
C1328      C1331   1.492       .  S
C1328      C1329   1.403       .  A
C1329      C1330   1.401       .  A
C1329      H1337   1.084       .  S
C1330      H1338   1.081       .  S
C1331      H1339   1.088       .  S
C1331      C1332   1.343       .  D
C1332      H1340   1.085       .  S
C1333      H1341   1.088       .  S
C1333      C1334   1.343       .  D
C1334      H1342   1.084       .  S
C1343      C1351   1.489       .  S
C1343      C1344   1.402       .  A
C1343      C1348   1.409       .  A
C1344      C1345   1.400       .  A
C1344      H1353   1.084       .  S
C1345      C1346   1.410       .  A
C1345      H1354   1.082       .  S
C1346      C1349   1.492       .  S
C1346      C1347   1.403       .  A
C1347      C1348   1.400       .  A
C1347      H1355   1.084       .  S
C1348      H1356   1.082       .  S
C1349      H1357   1.087       .  S
C1349      C1350   1.342       .  D
C1350      H1358   1.085       .  S
C1351      H1359   1.087       .  S
C1351      C1352   1.341       .  D
C1352      H1360   1.086       .  S
C1361      C1369   1.489       .  S
C1361      C1362   1.404       .  A
C1361      C1366   1.409       .  A
C1362      C1363   1.399       .  A
C1362      H1371   1.083       .  S
C1363      C1364   1.408       .  A
C1363      H1372   1.081       .  S
C1364      C1367   1.489       .  S
C1364      C1365   1.403       .  A
C1365      C1366   1.399       .  A
C1365      H1373   1.084       .  S
C1366      H1374   1.081       .  S
C1367      H1375   1.087       .  S
C1367      C1368   1.344       .  D
C1368      H1376   1.085       .  S
C1369      H1377   1.087       .  S
C1369      C1370   1.344       .  D
C1370      H1378   1.085       .  S
C1379      C1387   1.474       .  S
C1379      C1380   1.402       .  A
C1379      C1384   1.406       .  A
C1380      C1381   1.393       .  A
C1380      H1389   1.083       .  S
C1381      C1382   1.405       .  A
C1381      H1390   1.081       .  S
C1382      C1385   1.472       .  S
C1382      C1383   1.400       .  A
C1383      C1384   1.391       .  A
C1383      H1391   1.084       .  S
C1384      H1392   1.081       .  S
C1385      H1393   1.088       .  S
C1385      C1386   1.342       .  D
C1386      H1394   1.085       .  S
C1387      H1395   1.088       .  S
C1387      C1388   1.342       .  D
C1388      H1396   1.084       .  S
C1397      C1405   1.490       .  S
C1397      C1398   1.405       .  A
C1397      C1402   1.408       .  A
C1398      C1399   1.399       .  A
C1398      H1407   1.084       .  S
C1399      C1400   1.407       .  A
C1399      H1408   1.081       .  S
C1400      C1403   1.490       .  S
C1400      C1401   1.405       .  A
C1401      C1402   1.400       .  A
C1401      H1409   1.083       .  S
C1402      H1410   1.081       .  S
C1403      H1411   1.087       .  S
C1403      C1404   1.348       .  D
C1404      H1412   1.083       .  S
C1405      H1413   1.088       .  S
C1405      C1406   1.347       .  D
C1406      H1414   1.084       .  S
O1415      C1423   1.255       .  A
O1415     Co1435   1.982   1_565  S
O1416      C1424   1.272       .  A
O1417      C1425   1.268       .  A
O1418      C1426   1.291       .  A
O1419      C1425   1.262       .  A
O1420      C1426   1.276       .  A
O1421      C1424   1.289       .  A
O1422      C1423   1.268       .  A
O1422     Co1437   2.020   1_655  S
C1423      C1608   1.477       .  S
C1424      C1480   1.469       .  S
C1425      C1518   1.483       .  S
C1426      C1534   1.473       .  S
O1427      C1440   1.240       .  A
O1428      C1441   1.266       .  A
O1429      C1442   1.260       .  A
O1430      C1443   1.256       .  A
O1431      C1443   1.241       .  A
O1431     Co1436   1.957   1_556  S
O1432      C1442   1.276       .  A
O1433      C1440   1.256       .  A
O1433     Co1438   2.014   1_656  S
O1434      C1441   1.263       .  A
Co1435     O1439   1.935   1_645  S
Co1437     O1439   2.081       .  S
C1440      C1572   1.472       .  S
C1441      C1590   1.463       .  S
C1442      C1552   1.472       .  S
C1443      C1498   1.477       .  S
O1444      C1452   1.277       .  A
O1444     Co1464   2.037       .  S
O1445      C1453   1.240       .  A
O1445     Co1465   1.955       .  S
O1446      C1454   1.263       .  A
O1446     Co1466   1.966       .  S
O1447      C1455   1.255       .  A
O1447     Co1467   2.011       .  S
O1448      C1454   1.265       .  A
O1448     Co1465   1.999       .  S
O1449      C1455   1.240       .  A
O1449     Co1464   1.956       .  S
O1450      C1453   1.257       .  A
O1450     Co1467   2.021       .  S
O1451      C1452   1.261       .  A
O1451     Co1466   1.964       .  S
C1452      C1554   1.472       .  S
C1453      C1500   1.476       .  S
C1454      C1588   1.463       .  S
C1455      C1570   1.473       .  S
O1456      C1469   1.276       .  A
O1456     Co1464   1.921       .  S
O1457      C1470   1.261       .  A
O1457     Co1465   1.988       .  S
O1458      C1471   1.266       .  A
O1458     Co1466   2.018       .  S
O1459      C1472   1.291       .  A
O1459     Co1467   2.064       .  S
O1460      C1472   1.269       .  A
O1460     Co1465   1.908       .  S
O1461      C1471   1.256       .  A
O1461     Co1464   1.983       .  S
O1462      C1469   1.293       .  A
O1462     Co1467   2.062       .  S
O1463      C1470   1.269       .  A
O1463     Co1466   2.016       .  S
Co1464     O1468   1.932       .  S
Co1465     O1468   1.935       .  S
Co1466     O1468   2.080       .  S
Co1467     O1468   2.245       .  S
C1469      C1536   1.474       .  S
C1470      C1516   1.483       .  S
C1471      C1606   1.477       .  S
C1472      C1482   1.469       .  S
C1473      C1481   1.487       .  S
C1473      C1474   1.402       .  A
C1473      C1478   1.410       .  A
C1474      C1475   1.399       .  A
C1474      H1483   1.083       .  S
C1475      C1476   1.411       .  A
C1475      H1484   1.081       .  S
C1476      C1479   1.485       .  S
C1476      C1477   1.399       .  A
C1477      C1478   1.396       .  A
C1477      H1485   1.084       .  S
C1478      H1486   1.082       .  S
C1479      H1487   1.087       .  S
C1479      C1480   1.340       .  D
C1480      H1488   1.085       .  S
C1481      H1489   1.087       .  S
C1481      C1482   1.343       .  D
C1482      H1490   1.085       .  S
C1491      C1499   1.493       .  S
C1491      C1492   1.404       .  A
C1491      C1496   1.409       .  A
C1492      C1493   1.400       .  A
C1492      H1501   1.083       .  S
C1493      C1494   1.409       .  A
C1493      H1502   1.082       .  S
C1494      C1497   1.493       .  S
C1494      C1495   1.404       .  A
C1495      C1496   1.401       .  A
C1495      H1503   1.083       .  S
C1496      H1504   1.081       .  S
C1497      H1505   1.087       .  S
C1497      C1498   1.346       .  D
C1498      H1506   1.085       .  S
C1499      H1507   1.087       .  S
C1499      C1500   1.345       .  D
C1500      H1508   1.085       .  S
C1509      C1517   1.495       .  S
C1509      C1510   1.407       .  A
C1509      C1514   1.407       .  A
C1510      C1511   1.402       .  A
C1510      H1519   1.083       .  S
C1511      C1512   1.408       .  A
C1511      H1520   1.080       .  S
C1512      C1515   1.495       .  S
C1512      C1513   1.407       .  A
C1513      C1514   1.401       .  A
C1513      H1521   1.083       .  S
C1514      H1522   1.080       .  S
C1515      H1523   1.087       .  S
C1515      C1516   1.353       .  D
C1516      H1524   1.083       .  S
C1517      H1525   1.087       .  S
C1517      C1518   1.354       .  D
C1518      H1526   1.084       .  S
C1527      C1535   1.496       .  S
C1527      C1528   1.403       .  A
C1527      C1532   1.411       .  A
C1528      C1529   1.400       .  A
C1528      H1537   1.084       .  S
C1529      C1530   1.411       .  A
C1529      H1538   1.080       .  S
C1530      C1533   1.497       .  S
C1530      C1531   1.404       .  A
C1531      C1532   1.401       .  A
C1531      H1539   1.084       .  S
C1532      H1540   1.081       .  S
C1533      H1541   1.088       .  S
C1533      C1534   1.344       .  D
C1534      H1542   1.084       .  S
C1535      H1543   1.088       .  S
C1535      C1536   1.344       .  D
C1536      H1544   1.084       .  S
C1545      C1553   1.490       .  S
C1545      C1546   1.402       .  A
C1545      C1550   1.409       .  A
C1546      C1547   1.400       .  A
C1546      H1555   1.084       .  S
C1547      C1548   1.410       .  A
C1547      H1556   1.082       .  S
C1548      C1551   1.492       .  S
C1548      C1549   1.403       .  A
C1549      C1550   1.400       .  A
C1549      H1557   1.084       .  S
C1550      H1558   1.082       .  S
C1551      H1559   1.088       .  S
C1551      C1552   1.342       .  D
C1552      H1560   1.085       .  S
C1553      H1561   1.087       .  S
C1553      C1554   1.342       .  D
C1554      H1562   1.086       .  S
C1563      C1571   1.491       .  S
C1563      C1564   1.404       .  A
C1563      C1568   1.409       .  A
C1564      C1565   1.399       .  A
C1564      H1573   1.084       .  S
C1565      C1566   1.407       .  A
C1565      H1574   1.082       .  S
C1566      C1569   1.488       .  S
C1566      C1567   1.403       .  A
C1567      C1568   1.399       .  A
C1567      H1575   1.084       .  S
C1568      H1576   1.081       .  S
C1569      H1577   1.088       .  S
C1569      C1570   1.344       .  D
C1570      H1578   1.085       .  S
C1571      H1579   1.088       .  S
C1571      C1572   1.345       .  D
C1572      H1580   1.084       .  S
C1581      C1589   1.474       .  S
C1581      C1582   1.402       .  A
C1581      C1586   1.406       .  A
C1582      C1583   1.392       .  A
C1582      H1591   1.083       .  S
C1583      C1584   1.405       .  A
C1583      H1592   1.081       .  S
C1584      C1587   1.472       .  S
C1584      C1585   1.400       .  A
C1585      C1586   1.391       .  A
C1585      H1593   1.084       .  S
C1586      H1594   1.081       .  S
C1587      H1595   1.088       .  S
C1587      C1588   1.342       .  D
C1588      H1596   1.085       .  S
C1589      H1597   1.088       .  S
C1589      C1590   1.342       .  D
C1590      H1598   1.084       .  S
C1599      C1607   1.490       .  S
C1599      C1600   1.405       .  A
C1599      C1604   1.407       .  A
C1600      C1601   1.399       .  A
C1600      H1609   1.084       .  S
C1601      C1602   1.407       .  A
C1601      H1610   1.081       .  S
C1602      C1605   1.490       .  S
C1602      C1603   1.406       .  A
C1603      C1604   1.400       .  A
C1603      H1611   1.084       .  S
C1604      H1612   1.081       .  S
C1605      H1613   1.087       .  S
C1605      C1606   1.349       .  D
C1606      H1614   1.084       .  S
C1607      H1615   1.087       .  S
C1607      C1608   1.348       .  D
C1608      H1616   1.084       .  S
