geometry optimzed in LAMMPS
_audit_creation_date              2020-11-30 
_audit_creation_method            'lammps2cif' 
_symmetry_space_group_name_H-M    'P1' 
_symmetry_Int_Tables_number       1 
_symmetry_cell_setting            triclinic 
loop_ 
_symmetry_equiv_pos_as_xyz 
  x,y,z 
_cell_length_a                    35.81721938 
_cell_length_b                    58.755053574775665 
_cell_length_c                    43.76637082396617 
_cell_angle_alpha                 89.97520064360947 
_cell_angle_beta                  115.15360527597288 
_cell_angle_gamma                 89.90424961400176 
loop_ 
_atom_site_label 
_atom_site_type_symbol 
_atom_site_fract_x 
_atom_site_fract_y 
_atom_site_fract_z 
_atom_site_charge 
N1          N  0.62743344  0.29492759  0.51987219    -0.27000
N2          N  0.59360981  0.29151325  0.49190832    -0.34800
C3          C  0.60420819  0.28706404  0.46647700     0.01400
C4          C  0.64679185  0.28737969  0.47918079     0.07400
C5          C  0.66050653  0.29246028  0.51309719    -0.05700
H6          H  0.58270769  0.28205851  0.44134380     0.08100
H7          H  0.69217671  0.29306229  0.53185513     0.09300
Cu8        Cu  0.53584654  0.28765232  0.49151096     0.44200
Cu9        Cu  0.62679119  0.29958222  0.56660562     0.42000
Cu10       Cu  0.53563693  0.27753099  0.57331070     0.43900
N11         N  0.48529389  0.27546049  0.49792766    -0.34400
N12         N  0.48581832  0.27033649  0.52754745    -0.28600
C13         C  0.44902387  0.26140100  0.52253037    -0.04700
C14         C  0.42415955  0.26116742  0.48816203     0.07500
C15         C  0.44813246  0.27021294  0.47339092     0.01300
H16         H  0.44068660  0.25601090  0.54244505     0.09000
H17         H  0.43944151  0.27252912  0.44670118     0.08000
N18         N  0.58565358  0.29198099  0.61336795    -0.35800
N19         N  0.61767873  0.30106179  0.61030287    -0.28000
C20         C  0.64215698  0.31123298  0.63950382    -0.03200
C21         C  0.62507519  0.30813760  0.66218617     0.05400
C22         C  0.58938017  0.29579530  0.64487873     0.03500
H23         H  0.67018655  0.32033687  0.64380433     0.08600
H24         H  0.56682021  0.29086699  0.65399272     0.07400
N25         N  0.70468919  0.39813890  0.83048996    -0.27000
N26         N  0.70703439  0.39693202  0.80116222    -0.34800
C27         C  0.71466895  0.41776185  0.79250496     0.01400
C28         C  0.71727087  0.43289317  0.81749660     0.07400
C29         C  0.71097315  0.41988381  0.84127935    -0.05700
H30         H  0.71650112  0.42168564  0.76903244     0.08100
H31         H  0.70941157  0.42592692  0.86405742     0.09300
Cu32       Cu  0.69447573  0.36810219  0.77124512     0.44200
Cu33       Cu  0.68924148  0.37052299  0.85282532     0.42000
Cu34       Cu  0.65134822  0.32146790  0.79708643     0.43900
N35         N  0.66863295  0.34023082  0.74063216    -0.34400
N36         N  0.65043677  0.32356947  0.74941107    -0.28600
C37         C  0.63238236  0.30942075  0.72299621    -0.04700
C38         C  0.64018186  0.31745092  0.69655212     0.07500
C39         C  0.66337299  0.33694877  0.70864069     0.01300
H40         H  0.61478567  0.29447549  0.72301279     0.09000
H41         H  0.67403107  0.34845652  0.69474390     0.08000
N42         N  0.65757083  0.32231024  0.84647651    -0.35800
N43         N  0.67101447  0.34004408  0.86687555    -0.28000
C44         C  0.67077585  0.33474002  0.89677799    -0.03200
C45         C  0.65664790  0.31260920  0.89500697     0.05400
C46         C  0.64869163  0.30530091  0.86283865     0.03500
H47         H  0.68024994  0.34613039  0.91816184     0.08600
H48         H  0.63706551  0.28881515  0.85199509     0.07400
N49         N  0.63946893  0.73125494  0.59851858    -0.27000
N50         N  0.61189022  0.71505722  0.59348546    -0.34800
C51         C  0.62192823  0.70332928  0.62221883     0.01400
C52         C  0.65702877  0.71284175  0.64672143     0.07400
C53         C  0.66738984  0.73060113  0.63104948    -0.05700
H54         H  0.60430052  0.68928106  0.62526648     0.08100
H55         H  0.69371220  0.74179538  0.64216626     0.09300
Cu56       Cu  0.55965107  0.71064278  0.54902136     0.44200
Cu57       Cu  0.63869333  0.75180153  0.55957233     0.42000
Cu58       Cu  0.54806006  0.74531367  0.47839159     0.43900
N59         N  0.50589472  0.71178495  0.50502279    -0.34400
N60         N  0.50144386  0.72424557  0.47854470    -0.28600
C61         C  0.46302325  0.72122914  0.45415894    -0.04700
C62         C  0.44231927  0.70643326  0.46623593     0.07500
C63         C  0.47039498  0.70086540  0.49856170     0.01300
H64         H  0.45081225  0.72956735  0.42980083     0.09000
H65         H  0.46546443  0.68966129  0.51612613     0.08000
N66         N  0.60096541  0.76330669  0.48491201    -0.35800
N67         N  0.63375700  0.76541066  0.51411621    -0.28000
C68         C  0.66427850  0.77525439  0.50867129    -0.03200
C69         C  0.65005379  0.77964894  0.47450295     0.05400
C70         C  0.60971886  0.77201189  0.46024806     0.03500
H71         H  0.69527807  0.77779688  0.52792351     0.08600
H72         H  0.58924816  0.77126371  0.43363597     0.07400
N73         N  0.71804909  0.62850358  0.81846641    -0.27000
N74         N  0.71581683  0.62627154  0.78770369    -0.34800
C75         C  0.71813373  0.60408522  0.78123166     0.01400
C76         C  0.72194911  0.59169436  0.80924885     0.07400
C77         C  0.72177039  0.60770200  0.83244898    -0.05700
H78         H  0.71660106  0.59745309  0.75766728     0.08100
H79         H  0.72384188  0.60450477  0.85746330     0.09300
Cu80       Cu  0.70804680  0.65352776  0.75563985     0.44200
Cu81       Cu  0.71505227  0.66007525  0.83875548     0.42000
Cu82       Cu  0.70374964  0.71052833  0.78556403     0.43900
N83         N  0.69680564  0.68241731  0.72600934    -0.34400
N84         N  0.69665159  0.70339578  0.73689586    -0.28600
C85         C  0.68559627  0.71785234  0.71056470    -0.04700
C86         C  0.67799418  0.70522601  0.68186008     0.07500
C87         C  0.68509895  0.68288981  0.69253099     0.01300
H88         H  0.68003781  0.73586592  0.71173573     0.09000
H89         H  0.68005987  0.66794457  0.67684213     0.08000
N90         N  0.70565619  0.71155186  0.83368896    -0.35800
N91         N  0.70998008  0.69335172  0.85275945    -0.28000
C92         C  0.70870288  0.69981588  0.88174958    -0.03200
C93         C  0.70305547  0.72313939  0.88086680     0.05400
C94         C  0.70124411  0.73004170  0.85005765     0.03500
H95         H  0.71069400  0.68823881  0.90161186     0.08600
H96         H  0.69636055  0.74716961  0.84000443     0.07400
N97         N  0.69398116  0.79399217  0.41562450    -0.27000
N98         N  0.72780243  0.79032204  0.44352867    -0.34800
C99         C  0.71734086  0.78610124  0.46906200     0.01400
C100        C  0.67482329  0.78681410  0.45659104     0.07400
C101        C  0.66096488  0.79190211  0.42260522    -0.05700
H102        H  0.73892957  0.78112586  0.49421060     0.08100
H103        H  0.62924369  0.79289123  0.40400360     0.09300
Cu104      Cu  0.78569159  0.78642793  0.44430476     0.44200
Cu105      Cu  0.69500262  0.79916090  0.36899655     0.42000
Cu106      Cu  0.78937388  0.78023545  0.36354559     0.43900
N107        N  0.83791157  0.77629966  0.43875069    -0.34400
N108        N  0.83895919  0.77291565  0.40925751    -0.28600
C109        C  0.87657512  0.76502909  0.41456536    -0.04700
C110        C  0.90024578  0.76355388  0.44905071     0.07500
C111        C  0.87479299  0.77087060  0.46356111     0.01300
H112        H  0.88605098  0.76089094  0.39481862     0.09000
H113        H  0.88219295  0.77172788  0.49021086     0.08000
N114        N  0.73870342  0.79408310  0.32349403    -0.35800
N115        N  0.70557135  0.80213792  0.32598731    -0.28000
C116        C  0.68108324  0.81236463  0.29674212    -0.03200
C117        C  0.69935510  0.81027056  0.27470009     0.05400
C118        C  0.73568825  0.79853087  0.29237365     0.03500
H119        H  0.65220763  0.82075968  0.29194764     0.08600
H120        H  0.75914190  0.79446076  0.28380549     0.07400
N121        N  0.62031729  0.89984123  0.10497189    -0.27000
N122        N  0.62052808  0.89955253  0.13526668    -0.34800
C123        C  0.61348921  0.92069171  0.14327082     0.01400
C124        C  0.60860444  0.93503560  0.11685363     0.07400
C125        C  0.61304901  0.92129001  0.09288836    -0.05700
H126        H  0.61315018  0.92538134  0.16705782     0.08100
H127        H  0.61212138  0.92653279  0.06887871     0.09300
Cu128      Cu  0.63411286  0.87123045  0.16632531     0.44200
Cu129      Cu  0.63290552  0.87123576  0.08288069     0.42000
Cu130      Cu  0.67454024  0.82310801  0.14036220     0.43900
N131        N  0.65829840  0.84301628  0.19675564    -0.34400
N132        N  0.67564171  0.82590631  0.18796224    -0.28600
C133        C  0.69255643  0.81149434  0.21420862    -0.04700
C134        C  0.68481278  0.81978445  0.24051907     0.07500
C135        C  0.66289299  0.83973513  0.22858936     0.01300
H136        H  0.70924444  0.79614335  0.21413453     0.09000
H137        H  0.65270865  0.85151365  0.24249527     0.08000
N138        N  0.66540461  0.82307251  0.09027292    -0.35800
N139        N  0.65034258  0.84043371  0.06928617    -0.28000
C140        C  0.64869695  0.83465259  0.03895924    -0.03200
C141        C  0.66323242  0.81259206  0.04103850     0.05400
C142        C  0.67343475  0.80579159  0.07383826     0.03500
H143        H  0.63773475  0.84569980  0.01709704     0.08600
H144        H  0.68610032  0.78951330  0.08506667     0.07400
N145        N  0.68463758  0.23307333  0.33802921    -0.27000
N146        N  0.71200139  0.21675049  0.34272114    -0.34800
C147        C  0.70098196  0.20482079  0.31406061     0.01400
C148        C  0.66541362  0.21433392  0.29002495     0.07400
C149        C  0.65586835  0.23230217  0.30583581    -0.05700
H150        H  0.71810575  0.19057198  0.31078187     0.08100
H151        H  0.62943689  0.24351517  0.29509524     0.09300
Cu152      Cu  0.76444418  0.21207167  0.38698437     0.44200
Cu153      Cu  0.68599540  0.25357670  0.37709339     0.42000
Cu154      Cu  0.77340847  0.24371059  0.45949944     0.43900
N155        N  0.81712394  0.21193022  0.43182261    -0.34400
N156        N  0.82053985  0.22310132  0.45908204    -0.28600
C157        C  0.85860147  0.21954667  0.48379511    -0.04700
C158        C  0.88013453  0.20576775  0.47111282     0.07500
C159        C  0.85291362  0.20133314  0.43812128     0.01300
H160        H  0.87009453  0.22696537  0.50873938     0.09000
H161        H  0.85867993  0.19120806  0.41992319     0.08000
N162        N  0.72106256  0.26262306  0.45228227    -0.35800
N163        N  0.68946731  0.26600396  0.42265489    -0.28000
C164        C  0.65887922  0.27631245  0.42756240    -0.03200
C165        C  0.67191755  0.27974905  0.46182111     0.05400
C166        C  0.71153966  0.27101094  0.47669468     0.03500
H167        H  0.62863224  0.27994836  0.40778104     0.08600
H168        H  0.73094656  0.26940900  0.50344106     0.07400
N169        N  0.59499439  0.12971200  0.11808293    -0.27000
N170        N  0.59616047  0.12784930  0.14857586    -0.34800
C171        C  0.59338666  0.10577686  0.15535999     0.01400
C172        C  0.59047949  0.09306961  0.12785082     0.07400
C173        C  0.59154539  0.10876967  0.10464889    -0.05700
H174        H  0.59477034  0.09946458  0.17903792     0.08100
H175        H  0.59092306  0.10520542  0.08018638     0.09300
Cu176      Cu  0.60536456  0.15503052  0.18096381     0.44200
Cu177      Cu  0.60063782  0.16070737  0.09745896     0.42000
Cu178      Cu  0.61829414  0.21057093  0.15154200     0.43900
N179        N  0.62084051  0.18380166  0.21096920    -0.34400
N180        N  0.62435777  0.20432953  0.20009340    -0.28600
C181        C  0.63773278  0.21883977  0.22636361    -0.04700
C182        C  0.64327956  0.20673134  0.25505343     0.07500
C183        C  0.63265311  0.18458610  0.24447420     0.01300
H184        H  0.64613661  0.23638267  0.22514904     0.09000
H185        H  0.63539021  0.16989938  0.26021817     0.08000
N186        N  0.61558372  0.21159268  0.10323295    -0.35800
N187        N  0.60892780  0.19352957  0.08357236    -0.28000
C188        C  0.60975907  0.19991687  0.05435203    -0.03200
C189        C  0.61748269  0.22306543  0.05574392     0.05400
C190        C  0.62103843  0.22990449  0.08708208     0.03500
H191        H  0.60571387  0.18843588  0.03386929     0.08600
H192        H  0.62752184  0.24689216  0.09754162     0.07400
N193        N  0.19557597  0.66600337  0.41814334    -0.27000
N194        N  0.22968146  0.66929683  0.44594380    -0.34800
C195        C  0.21957477  0.67422810  0.47149151     0.01400
C196        C  0.17703872  0.67442019  0.45910516     0.07400
C197        C  0.16280020  0.66905441  0.42520131    -0.05700
H198        H  0.24145459  0.67931600  0.49645425     0.08100
H199        H  0.13102561  0.66874512  0.40661081     0.09300
Cu200      Cu  0.28744840  0.67271733  0.44621135     0.44200
Cu201      Cu  0.19560123  0.66084244  0.37116316     0.42000
Cu202      Cu  0.28750670  0.68185990  0.36451020     0.43900
N203        N  0.33825191  0.68440160  0.43972292    -0.34400
N204        N  0.33764275  0.68916136  0.40997264    -0.28600
C205        C  0.37440799  0.69798101  0.41470122    -0.04700
C206        C  0.39935287  0.69853634  0.44903458     0.07500
C207        C  0.37547706  0.68976722  0.46409534     0.01300
H208        H  0.38262350  0.70315066  0.39462802     0.09000
H209        H  0.38421839  0.68782203  0.49085325     0.08000
N210        N  0.23733427  0.66746487  0.32459256    -0.35800
N211        N  0.20498938  0.65871067  0.32752819    -0.28000
C212        C  0.18076610  0.64827083  0.29845066    -0.03200
C213        C  0.19841588  0.65085477  0.27604119     0.05400
C214        C  0.23409005  0.66319316  0.29334845     0.03500
H215        H  0.15261437  0.63927628  0.29408798     0.08600
H216        H  0.25705125  0.66774521  0.28447811     0.07400
N217        N  0.12031102  0.56070257  0.10737013    -0.27000
N218        N  0.11731261  0.56155620  0.13646569    -0.34800
C219        C  0.10829909  0.54068827  0.14400258     0.01400
C220        C  0.10568840  0.52590280  0.11859166     0.07400
C221        C  0.11339579  0.53915712  0.09574602    -0.05700
H222        H  0.10571649  0.53644602  0.16707770     0.08100
H223        H  0.11516879  0.53342563  0.07290850     0.09300
Cu224      Cu  0.13094098  0.58998591  0.16747934     0.44200
Cu225      Cu  0.13709018  0.58847907  0.08620254     0.42000
Cu226      Cu  0.17707079  0.63642853  0.14291564     0.43900
N227        N  0.15685236  0.61793931  0.19818187    -0.34400
N228        N  0.17583795  0.63439057  0.18976898    -0.28600
C229        C  0.19314539  0.64873921  0.21598973    -0.04700
C230        C  0.18409303  0.64112110  0.24196803     0.07500
C231        C  0.16091950  0.62160441  0.22980909     0.01300
H232        H  0.21108194  0.66357298  0.21614185     0.09000
H233        H  0.14939485  0.61037508  0.24342645     0.08000
N234        N  0.17227777  0.63588836  0.09401444    -0.35800
N235        N  0.15768752  0.61852947  0.07305236    -0.28000
C236        C  0.15856418  0.62393199  0.04341302    -0.03200
C237        C  0.17436831  0.64573631  0.04598694     0.05400
C238        C  0.18264478  0.65274646  0.07834462     0.03500
H239        H  0.14818778  0.61288058  0.02160964     0.08600
H240        H  0.19513631  0.66899331  0.08967958     0.07400
N241        N  0.18875083  0.19520961  0.42096600    -0.27000
N242        N  0.22083802  0.19774071  0.45051056    -0.34800
C243        C  0.21137153  0.18915241  0.47484243     0.01400
C244        C  0.17129318  0.18115850  0.45998750     0.07400
C245        C  0.15790906  0.18525926  0.42583988    -0.05700
H246        H  0.23122603  0.19008637  0.50157227     0.08100
H247        H  0.12734947  0.18226828  0.40614848     0.09300
Cu248      Cu  0.27390347  0.21579661  0.45775504     0.44200
Cu249      Cu  0.18536220  0.20812212  0.37569963     0.42000
Cu250      Cu  0.26467324  0.24926733  0.38662309     0.43900
N251        N  0.32130102  0.23631162  0.45791929    -0.34400
N252        N  0.31776185  0.24829263  0.43125952    -0.28600
C253        C  0.35365987  0.25884522  0.43798949    -0.04700
C254        C  0.38106153  0.25351504  0.47064334     0.07500
C255        C  0.35952128  0.23925770  0.48265452     0.01300
H256        H  0.35933706  0.26961548  0.42035683     0.09000
H257        H  0.37103062  0.23121672  0.50720831     0.08000
N258        N  0.21232235  0.24499018  0.34208986    -0.35800
N259        N  0.18484373  0.22873085  0.33703548    -0.28000
C260        C  0.15650685  0.22959299  0.30469834    -0.03200
C261        C  0.16637907  0.24757450  0.28914388     0.05400
C262        C  0.20172956  0.25699816  0.31350127     0.03500
H263        H  0.13010982  0.21843936  0.29368275     0.08600
H264        H  0.21905616  0.27120201  0.31046846     0.07400
N265        N  0.09895664  0.33046051  0.11555022    -0.27000
N266        N  0.09941065  0.33299239  0.14571153    -0.34800
C267        C  0.09559242  0.35519315  0.15120078     0.01400
C268        C  0.09301915  0.36728975  0.12331259     0.07400
C269        C  0.09525843  0.35110367  0.10113260    -0.05700
H270        H  0.09605546  0.36207796  0.17428639     0.08100
H271        H  0.09478437  0.35408911  0.07658009     0.09300
Cu272      Cu  0.10886735  0.30645307  0.17920771     0.42600
Cu273      Cu  0.10452100  0.29888889  0.09636599     0.42000
Cu274      Cu  0.11478004  0.24952078  0.14994839     0.43900
N275        N  0.12297603  0.27789624  0.20967128    -0.34400
N276        N  0.12319844  0.25691501  0.19882332    -0.28600
C277        C  0.13587848  0.24257732  0.22534190    -0.04700
C278        C  0.14462182  0.25527531  0.25414087     0.07500
C279        C  0.13640739  0.27755801  0.24336584     0.01300
H280        H  0.14166978  0.22460014  0.22410778     0.09000
H281        H  0.14155737  0.29253694  0.25900563     0.08000
N282        N  0.11489479  0.24766046  0.10260068    -0.35800
N283        N  0.11129922  0.26560662  0.08325965    -0.28000
C284        C  0.11446779  0.25876904  0.05513021    -0.03200
C285        C  0.12057423  0.23547706  0.05690324     0.05400
C286        C  0.12064699  0.22896132  0.08732143     0.03500
H287        H  0.11325433  0.27002016  0.03514920     0.08600
H288        H  0.12528702  0.21199064  0.09790822     0.07400
N289        N  0.13913757  0.72939157  0.60161460    -0.27000
N290        N  0.10895898  0.74376616  0.59762199    -0.34800
C291        C  0.11828426  0.75510386  0.62656625     0.01400
C292        C  0.15572384  0.74719718  0.65015216     0.07400
C293        C  0.16815906  0.73082046  0.63369451    -0.05700
H294        H  0.09898569  0.76800040  0.63024749     0.08100
H295        H  0.19672980  0.72127517  0.64387604     0.09300
Cu296      Cu  0.05585482  0.74719683  0.55352400     0.44200
Cu297      Cu  0.14039967  0.71063516  0.56168720     0.42000
Cu298      Cu  0.05163163  0.71918958  0.47950940     0.43900
N299        N  0.00477733  0.74835980  0.50762977    -0.34400
N300        N  0.00326246  0.73869504  0.47987126    -0.28600
C301        C  0.96609254  0.74295723  0.45436396    -0.04700
C302        C  0.94314646  0.75563778  0.46698286     0.07500
C303        C  0.96861476  0.75868804  0.50080110     0.01300
H304        H  0.95617771  0.73679571  0.42882037     0.09000
H305        H  0.96146271  0.76775929  0.51916673     0.08000
N306        N  0.10431113  0.70069623  0.48652896    -0.35800
N307        N  0.13645192  0.69783847  0.51599452    -0.28000
C308        C  0.16658784  0.68713865  0.51089660    -0.03200
C309        C  0.15269112  0.68291248  0.47670843     0.05400
C310        C  0.11304094  0.69162179  0.46207549     0.03500
H311        H  0.19700215  0.68358321  0.53048518     0.08600
H312        H  0.09291017  0.69255600  0.43539760     0.07400
N313        N  0.22388090  0.83191895  0.82279293    -0.27000
N314        N  0.22045623  0.83415328  0.79167088    -0.34800
C315        C  0.22375057  0.85626481  0.78537566     0.01400
C316        C  0.22924992  0.86861225  0.81382060     0.07400
C317        C  0.22919698  0.85265790  0.83713948    -0.05700
H318        H  0.22133513  0.86290643  0.76154069     0.08100
H319        H  0.23227944  0.85586222  0.86244027     0.09300
Cu320      Cu  0.20926714  0.80713824  0.75869038     0.44200
Cu321      Cu  0.22025382  0.80047376  0.84310584     0.42000
Cu322      Cu  0.21003234  0.75018490  0.78990006     0.43900
N323        N  0.19718864  0.77833099  0.72888097    -0.34400
N324        N  0.19965064  0.75731078  0.74039549    -0.28600
C325        C  0.18819775  0.74273410  0.71422789    -0.04700
C326        C  0.17749834  0.75530311  0.68496937     0.07500
C327        C  0.18321338  0.77775635  0.69514609     0.01300
H328        H  0.18453950  0.72457968  0.71602999     0.09000
H329        H  0.17604705  0.79264329  0.67907722     0.08000
N330        N  0.21171720  0.74902117  0.83798756    -0.35800
N331        N  0.21557422  0.76714525  0.85706225    -0.28000
C332        C  0.21441068  0.76051453  0.88604940    -0.03200
C333        C  0.20925855  0.73716256  0.88512207     0.05400
C334        C  0.20759404  0.73042988  0.85429956     0.03500
H335        H  0.21628787  0.77197143  0.90599228     0.08600
H336        H  0.20329264  0.71331228  0.84429569     0.07400
N337        N  0.12697886  0.16536289  0.51791100    -0.27000
N338        N  0.09316985  0.16953390  0.49021456    -0.34800
C339        C  0.10369006  0.17436393  0.46486601     0.01400
C340        C  0.14621406  0.17351527  0.47733922     0.07400
C341        C  0.15999315  0.16772259  0.51103893    -0.05700
H342        H  0.08221979  0.17991380  0.43998617     0.08100
H343        H  0.19169862  0.16652037  0.52961831     0.09300
Cu344      Cu  0.03557170  0.17358275  0.49002572     0.44200
Cu345      Cu  0.12656351  0.15980676  0.56456405     0.42000
Cu346      Cu  0.03566056  0.18136996  0.57222393     0.43900
N347        N  0.98476060  0.18462171  0.49706537    -0.34400
N348        N  0.98526528  0.18874541  0.52694837    -0.28600
C349        C  0.94822868  0.19709707  0.52248053    -0.04700
C350        C  0.92325915  0.19803720  0.48817323     0.07500
C351        C  0.94738343  0.18997390  0.47286680     0.01300
H352        H  0.93990494  0.20173884  0.54269872     0.09000
H353        H  0.93869030  0.18847636  0.44606291     0.08000
N354        N  0.08632878  0.16714988  0.61198705    -0.35800
N355        N  0.11824398  0.15813546  0.60860812    -0.28000
C356        C  0.14325571  0.14807080  0.63780531    -0.03200
C357        C  0.12661507  0.15119712  0.66077823     0.05400
C358        C  0.09065550  0.16343311  0.64367489     0.03500
H359        H  0.17137010  0.13905856  0.64192661     0.08600
H360        H  0.06832033  0.16834645  0.65305910     0.07400
N361        N  0.20644001  0.06206197  0.83064853    -0.27000
N362        N  0.20929025  0.06299611  0.80149459    -0.34800
C363        C  0.21827552  0.04217010  0.79381662     0.01400
C364        C  0.22118900  0.02731682  0.81923407     0.07400
C365        C  0.21368528  0.04049430  0.84226742    -0.05700
H366        H  0.22079226  0.03803469  0.77068498     0.08100
H367        H  0.21205622  0.03467466  0.86512680     0.09300
Cu368      Cu  0.19598087  0.09139406  0.77048299     0.44200
Cu369      Cu  0.18968645  0.08981184  0.85194304     0.42000
Cu370      Cu  0.15469510  0.13891797  0.79600644     0.43900
N371        N  0.17061676  0.11927569  0.73948093    -0.34400
N372        N  0.15317509  0.13630835  0.74831385    -0.28600
C373        C  0.13519823  0.15044905  0.72184422    -0.04700
C374        C  0.14227127  0.14204200  0.69526582     0.07500
C375        C  0.16495829  0.12231880  0.70733060     0.01300
H376        H  0.11807737  0.16562482  0.72190470     0.09000
H377        H  0.17491240  0.11050493  0.69331507     0.08000
N378        N  0.16047539  0.13856656  0.84514511    -0.35800
N379        N  0.17242394  0.12076854  0.86560454    -0.28000
C380        C  0.17200171  0.12652483  0.89529368    -0.03200
C381        C  0.15950044  0.14902112  0.89333716     0.05400
C382        C  0.15253793  0.15606689  0.86122487     0.03500
H383        H  0.18044924  0.11524122  0.91675539     0.08600
H384        H  0.14214228  0.17266337  0.85013192     0.07400
C385        C  0.23056107  0.96843687  0.83476905     0.30100
C386        C  0.23133334  0.94815363  0.85203611    -0.36200
C387        C  0.23272874  0.92790238  0.83552405     0.16100
C388        C  0.23324682  0.92764527  0.80417069     0.21900
C389        C  0.23286476  0.94789282  0.78706827    -0.34400
C390        C  0.23153153  0.96810232  0.80358474     0.16000
O391        O  0.22753627  0.98927517  0.84480172    -0.26400
C392        C  0.22672705  0.00243370  0.81974722     0.05800
C393        C  0.22927796  0.99015531  0.79351309    -0.31300
O394        O  0.23274445  0.90684907  0.79274122    -0.23100
C395        C  0.23206569  0.89355315  0.81711415    -0.03100
C396        C  0.23219354  0.90571003  0.84444785    -0.17500
H397        H  0.23013627  0.94814875  0.87632978     0.20500
H398        H  0.23281002  0.94787949  0.76232041     0.18800
H399        H  0.22841456  0.99647908  0.76999672     0.18800
H400        H  0.23089470  0.89918261  0.86709929     0.14600
C401        C  0.13313591  0.21209748  0.98818373     0.30100
C402        C  0.13465018  0.21234568  0.95671295    -0.36200
C403        C  0.14292416  0.19143319  0.94547461     0.16100
C404        C  0.14951504  0.17158192  0.96392600     0.21900
C405        C  0.14796650  0.17132798  0.99548780    -0.34400
C406        C  0.13947162  0.19228361  0.00669907     0.16000
O407        O  0.12567152  0.22974337  0.00332931    -0.26400
C408        C  0.12710292  0.22119422  0.03194638     0.05800
C409        C  0.13557376  0.19794261  0.03543702    -0.31300
O410        O  0.15658934  0.15397257  0.94833597    -0.23100
C411        C  0.15429785  0.16271190  0.91949536    -0.03100
C412        C  0.14588285  0.18593809  0.91643080    -0.17500
H413        H  0.12954298  0.22777050  0.94193252     0.20500
H414        H  0.15286070  0.15588233  0.01018783     0.18800
H415        H  0.13851674  0.18686541  0.05610442     0.18800
H416        H  0.14235154  0.19717076  0.89577131     0.14600
C417        C  0.19470908  0.68704187  0.99722287     0.30100
C418        C  0.20592092  0.70860130  0.99020270    -0.36200
C419        C  0.20418390  0.71154750  0.95785080     0.16100
C420        C  0.19253156  0.69442755  0.93403918     0.21900
C421        C  0.18122266  0.67283130  0.94105295    -0.34400
C422        C  0.18270690  0.66991475  0.97341116     0.16000
O423        O  0.19360515  0.68072816  0.02571877    -0.26400
C424        C  0.18059568  0.65927853  0.02018185     0.05800
C425        C  0.17331771  0.65161104  0.98803553    -0.31300
O426        O  0.19305903  0.70102252  0.90537882    -0.23100
C427        C  0.20498736  0.72267500  0.91091635    -0.03100
C428        C  0.21229397  0.73011891  0.94312438    -0.17500
H429        H  0.21507573  0.72219238  0.00861944     0.20500
H430        H  0.17169360  0.65930970  0.92252570     0.18800
H431        H  0.16251169  0.63505848  0.97702088     0.18800
H432        H  0.22213346  0.74678359  0.95410052     0.14600
C433        C  0.09855748  0.46694455  0.10372493     0.30100
C434        C  0.10117248  0.44653928  0.08800954    -0.36200
C435        C  0.09539592  0.42642835  0.10279947     0.16100
C436        C  0.08770646  0.42641516  0.13114427     0.21900
C437        C  0.08478039  0.44678577  0.14668111    -0.34400
C438        C  0.09055819  0.46685731  0.13191300     0.16000
O439        O  0.10426745  0.48768325  0.09488039    -0.26400
C440        C  0.09988177  0.50102941  0.11773426     0.05800
C441        C  0.09124333  0.48897058  0.14133723    -0.31300
O442        O  0.08518979  0.40570263  0.14167081    -0.23100
C443        C  0.09108382  0.39221834  0.11969753    -0.03100
C444        C  0.09741626  0.40416239  0.09483826    -0.17500
H445        H  0.10793185  0.44634018  0.06614922     0.20500
H446        H  0.07919930  0.44695358  0.16911776     0.18800
H447        H  0.08686667  0.49549126  0.16270771     0.18800
H448        H  0.10389639  0.39744069  0.07457779     0.14600
C449        C  0.59615945  0.99229369  0.13271526     0.30100
C450        C  0.59326894  0.01076866  0.15184648    -0.36200
C451        C  0.59112768  0.03233785  0.13755004     0.16100
C452        C  0.59168120  0.03557249  0.10651001     0.21900
C453        C  0.59430426  0.01703928  0.08723351    -0.34400
C454        C  0.59655973  0.99541391  0.10159466     0.16000
O455        O  0.59985260  0.97074803  0.14183295    -0.26400
C456        C  0.60259631  0.95983484  0.11624754     0.05800
C457        C  0.60065275  0.97429918  0.09040714    -0.31300
O458        O  0.59082631  0.05731539  0.09862724    -0.23100
C459        C  0.58970941  0.06809320  0.12498382    -0.03100
C460        C  0.58971550  0.05338713  0.14989917    -0.17500
H461        H  0.59340268  0.00850253  0.17643491     0.20500
H462        H  0.59523710  0.01934203  0.06303476     0.18800
H463        H  0.60273434  0.96995267  0.06715575     0.18800
H464        H  0.58962125  0.05757576  0.17394065     0.14600
C465        C  0.68094780  0.77125808  0.99105509     0.30100
C466        C  0.69164174  0.74969154  0.98361796    -0.36200
C467        C  0.69289498  0.74748603  0.95220934     0.16100
C468        C  0.68431742  0.76525843  0.92958427     0.21900
C469        C  0.67338951  0.78686112  0.93696708    -0.34400
C470        C  0.67198431  0.78905713  0.96841984     0.16000
O471        O  0.67868792  0.77714702  0.01925371    -0.26400
C472        C  0.66794373  0.79899186  0.01467355     0.05800
C473        C  0.66315075  0.80732658  0.98343016    -0.31300
O474        O  0.68725320  0.75924157  0.90161636    -0.23100
C475        C  0.69770052  0.73732142  0.90645043    -0.03100
C476        C  0.70168622  0.72914676  0.93750799    -0.17500
H477        H  0.69861687  0.73561385  0.00115991     0.20500
H478        H  0.66649823  0.80094937  0.91945540     0.18800
H479        H  0.65512972  0.82441309  0.97352222     0.18800
H480        H  0.70958980  0.71212088  0.94769998     0.14600
C481        C  0.63668204  0.27164783  0.94443857     0.30100
C482        C  0.62559445  0.25014825  0.95176739    -0.36200
C483        C  0.62542571  0.24773889  0.98355826     0.16100
C484        C  0.63533147  0.26527869  0.00661807     0.21900
C485        C  0.64645784  0.28684051  0.99927828    -0.34400
C486        C  0.64679710  0.28923504  0.96744603     0.16000
O487        O  0.63890519  0.27756021  0.91621578    -0.26400
C488        C  0.65071143  0.29922502  0.92109396     0.05800
C489        C  0.65616580  0.30742057  0.95257455    -0.31300
O490        O  0.63350436  0.25907883  0.03496303    -0.23100
C491        C  0.62239035  0.23727594  0.02994148    -0.03100
C492        C  0.61689530  0.22935389  0.99837679    -0.17500
H493        H  0.61780961  0.23622293  0.93395205     0.20500
H494        H  0.65448835  0.30072247  0.01717642     0.18800
H495        H  0.66545792  0.32429110  0.96289839     0.18800
H496        H  0.60819875  0.21246290  0.98793750     0.14600
C497        C  0.72517448  0.53257028  0.79971534     0.30100
C498        C  0.72425528  0.51224707  0.78261043    -0.36200
C499        C  0.72436420  0.49209547  0.79981289     0.16100
C500        C  0.72529416  0.49189444  0.83166150     0.21900
C501        C  0.72658823  0.51224796  0.84890771    -0.34400
C502        C  0.72644269  0.53243689  0.83167847     0.16000
O503        O  0.72384925  0.55332754  0.78786067    -0.26400
C504        C  0.72433584  0.56672423  0.81253355     0.05800
C505        C  0.72605917  0.55466553  0.84049127    -0.31300
O506        O  0.72354782  0.47109372  0.84240426    -0.23100
C507        C  0.72164904  0.45781512  0.81714402    -0.03100
C508        C  0.72218457  0.46997918  0.79003795    -0.17500
H509        H  0.72283845  0.51216040  0.75741065     0.20500
H510        H  0.72693151  0.51234371  0.87375202     0.18800
H511        H  0.72620866  0.56128013  0.86361464     0.18800
H512        H  0.72017361  0.46353105  0.76623072     0.14600
loop_ 
_geom_bond_atom_site_label_1 
_geom_bond_atom_site_label_2 
_geom_bond_distance 
_geom_bond_site_symmetry_2 
_ccdc_geom_bond_type 
N1            N2   1.322       .  A
N1            C5   1.345       .  A
N1           Cu9   2.073       .  S
N2            C3   1.346       .  A
N2           Cu8   2.074       .  S
C3            C4   1.384       .  A
C3            H6   1.082       .  S
C4            C5   1.384       .  A
C4          C165   1.473       .  S
C5            H7   1.082       .  S
Cu8          N11   2.075       .  S
Cu9          N19   2.074       .  S
Cu10         N12   2.083       .  S
Cu10         N18   2.083       .  S
N11          N12   1.323       .  A
N11          C15   1.344       .  A
N12          C13   1.348       .  A
C13          C14   1.385       .  A
C13          H16   1.082       .  S
C14          C15   1.382       .  A
C14         C254   1.473       .  S
C15          H17   1.082       .  S
N18          N19   1.323       .  A
N18          C22   1.347       .  A
N19          C20   1.345       .  A
C20          C21   1.382       .  A
C20          H23   1.082       .  S
C21          C22   1.384       .  A
C21          C38   1.471       .  S
C22          H24   1.082       .  S
N25          N26   1.323       .  A
N25          C29   1.348       .  A
N25         Cu33   2.087       .  S
N26          C27   1.343       .  A
N26         Cu32   2.071       .  S
C27          C28   1.382       .  A
C27          H30   1.082       .  S
C28          C29   1.385       .  A
C28         C507   1.474       .  S
C29          H31   1.082       .  S
Cu32         N35   2.070       .  S
Cu33         N43   2.087       .  S
Cu34         N36   2.077       .  S
Cu34         N42   2.077       .  S
N35          N36   1.321       .  A
N35          C39   1.345       .  A
N36          C37   1.346       .  A
C37          C38   1.384       .  A
C37          H40   1.082       .  S
C38          C39   1.383       .  A
C39          H41   1.082       .  S
N42          N43   1.323       .  A
N42          C46   1.344       .  A
N43          C44   1.349       .  A
C44          C45   1.386       .  A
C44          H47   1.082       .  S
C45          C46   1.381       .  A
C45         C488   1.474       .  S
C46          H48   1.082       .  S
N49          N50   1.322       .  A
N49          C53   1.348       .  A
N49         Cu57   2.079       .  S
N50          C51   1.341       .  A
N50         Cu56   2.064       .  S
C51          C52   1.378       .  A
C51          H54   1.082       .  S
C52          C53   1.383       .  A
C52          C86   1.465       .  S
C53          H55   1.082       .  S
Cu56         N59   2.066       .  S
Cu57         N67   2.080       .  S
Cu58         N60   2.082       .  S
Cu58         N66   2.083       .  S
N59          N60   1.321       .  A
N59          C63   1.344       .  A
N60          C61   1.348       .  A
C61          C62   1.386       .  A
C61          H64   1.082       .  S
C62          C63   1.382       .  A
C62         C206   1.472       .  S
C63          H65   1.082       .  S
N66          N67   1.324       .  A
N66          C70   1.346       .  A
N67          C68   1.345       .  A
C68          C69   1.384       .  A
C68          H71   1.082       .  S
C69          C70   1.383       .  A
C69         C100   1.473       .  S
C70          H72   1.082       .  S
N73          N74   1.321       .  A
N73          C77   1.347       .  A
N73         Cu81   2.079       .  S
N74          C75   1.344       .  A
N74         Cu80   2.068       .  S
C75          C76   1.382       .  A
C75          H78   1.082       .  S
C76          C77   1.386       .  A
C76         C504   1.473       .  S
C77          H79   1.082       .  S
Cu80         N83   2.068       .  S
Cu81         N91   2.080       .  S
Cu82         N84   2.078       .  S
Cu82         N90   2.079       .  S
N83          N84   1.323       .  A
N83          C87   1.342       .  A
N84          C85   1.348       .  A
C85          C86   1.383       .  A
C85          H88   1.082       .  S
C86          C87   1.379       .  A
C87          H89   1.082       .  S
N90          N91   1.324       .  A
N90          C94   1.347       .  A
N91          C92   1.344       .  A
C92          C93   1.383       .  A
C92          H95   1.082       .  S
C93          C94   1.383       .  A
C93         C475   1.472       .  S
C94          H96   1.082       .  S
N97          N98   1.322       .  A
N97         C101   1.347       .  A
N97        Cu105   2.079       .  S
N98          C99   1.344       .  A
N98        Cu104   2.072       .  S
C99         C100   1.383       .  A
C99         H102   1.082       .  S
C100        C101   1.386       .  A
C101        H103   1.082       .  S
Cu104       N107   2.072       .  S
Cu105       N115   2.079       .  S
Cu106       N108   2.078       .  S
Cu106       N114   2.078       .  S
N107        N108   1.322       .  A
N107        C111   1.343       .  A
N108        C109   1.347       .  A
C109        C110   1.384       .  A
C109        H112   1.082       .  S
C110        C111   1.382       .  A
C110        C302   1.472       .  S
C111        H113   1.082       .  S
N114        N115   1.324       .  A
N114        C118   1.345       .  A
N115        C116   1.346       .  A
C116        C117   1.382       .  A
C116        H119   1.082       .  S
C117        C118   1.381       .  A
C117        C134   1.469       .  S
C118        H120   1.082       .  S
N121        N122   1.323       .  A
N121        C125   1.348       .  A
N121       Cu129   2.081       .  S
N122        C123   1.343       .  A
N122       Cu128   2.070       .  S
C123        C124   1.380       .  A
C123        H126   1.082       .  S
C124        C125   1.386       .  A
C124        C456   1.471       .  S
C125        H127   1.082       .  S
Cu128       N131   2.070       .  S
Cu129       N139   2.081       .  S
Cu130       N132   2.073       .  S
Cu130       N138   2.074       .  S
N131        N132   1.321       .  A
N131        C135   1.345       .  A
N132        C133   1.345       .  A
C133        C134   1.383       .  A
C133        H136   1.082       .  S
C134        C135   1.382       .  A
C135        H137   1.082       .  S
N138        N139   1.323       .  A
N138        C142   1.344       .  A
N139        C140   1.347       .  A
C140        C141   1.384       .  A
C140        H143   1.082       .  S
C141        C142   1.381       .  A
C141        C472   1.471       .  S
C142        H144   1.082       .  S
N145        N146   1.322       .  A
N145        C149   1.347       .  A
N145       Cu153   2.076       .  S
N146        C147   1.342       .  A
N146       Cu152   2.064       .  S
C147        C148   1.378       .  A
C147        H150   1.082       .  S
C148        C149   1.382       .  A
C148        C182   1.463       .  S
C149        H151   1.082       .  S
Cu152       N155   2.065       .  S
Cu153       N163   2.077       .  S
Cu154       N156   2.082       .  S
Cu154       N162   2.083       .  S
N155        N156   1.321       .  A
N155        C159   1.343       .  A
N156        C157   1.348       .  A
C157        C158   1.386       .  A
C157        H160   1.082       .  S
C158        C159   1.381       .  A
C158        C350   1.472       .  S
C159        H161   1.082       .  S
N162        N163   1.324       .  A
N162        C166   1.346       .  A
N163        C164   1.346       .  A
C164        C165   1.383       .  A
C164        H167   1.082       .  S
C165        C166   1.383       .  A
C166        H168   1.082       .  S
N169        N170   1.322       .  A
N169        C173   1.347       .  A
N169       Cu177   2.080       .  S
N170        C171   1.344       .  A
N170       Cu176   2.068       .  S
C171        C172   1.383       .  A
C171        H174   1.082       .  S
C172        C173   1.384       .  A
C172        C459   1.472       .  S
C173        H175   1.082       .  S
Cu176       N179   2.068       .  S
Cu177       N187   2.081       .  S
Cu178       N180   2.075       .  S
Cu178       N186   2.076       .  S
N179        N180   1.322       .  A
N179        C183   1.343       .  A
N180        C181   1.346       .  A
C181        C182   1.382       .  A
C181        H184   1.082       .  S
C182        C183   1.380       .  A
C183        H185   1.082       .  S
N186        N187   1.323       .  A
N186        C190   1.346       .  A
N187        C188   1.345       .  A
C188        C189   1.385       .  A
C188        H191   1.082       .  S
C189        C190   1.382       .  A
C189        C491   1.474       .  S
C190        H192   1.082       .  S
N193        N194   1.322       .  A
N193        C197   1.347       .  A
N193       Cu201   2.079       .  S
N194        C195   1.345       .  A
N194       Cu200   2.074       .  S
C195        C196   1.383       .  A
C195        H198   1.082       .  S
C196        C197   1.385       .  A
C196        C309   1.474       .  S
C197        H199   1.082       .  S
Cu200       N203   2.075       .  S
Cu201       N211   2.079       .  S
Cu202       N204   2.082       .  S
Cu202       N210   2.082       .  S
N203        N204   1.323       .  A
N203        C207   1.344       .  A
N204        C205   1.348       .  A
C205        C206   1.384       .  A
C205        H208   1.082       .  S
C206        C207   1.383       .  A
C207        H209   1.082       .  S
N210        N211   1.324       .  A
N210        C214   1.346       .  A
N211        C212   1.346       .  A
C212        C213   1.383       .  A
C212        H215   1.082       .  S
C213        C214   1.383       .  A
C213        C230   1.472       .  S
C214        H216   1.082       .  S
N217        N218   1.324       .  A
N217        C221   1.348       .  A
N217       Cu225   2.088       .  S
N218        C219   1.345       .  A
N218       Cu224   2.077       .  S
C219        C220   1.383       .  A
C219        H222   1.082       .  S
C220        C221   1.385       .  A
C220        C440   1.475       .  S
C221        H223   1.082       .  S
Cu224       N227   2.076       .  S
Cu225       N235   2.087       .  S
Cu226       N228   2.073       .  S
Cu226       N234   2.073       .  S
N227        N228   1.322       .  A
N227        C231   1.346       .  A
N228        C229   1.345       .  A
C229        C230   1.383       .  A
C229        H232   1.082       .  S
C230        C231   1.384       .  A
C231        H233   1.082       .  S
N234        N235   1.323       .  A
N234        C238   1.344       .  A
N235        C236   1.349       .  A
C236        C237   1.387       .  A
C236        H239   1.082       .  S
C237        C238   1.381       .  A
C237        C424   1.474       .  S
C238        H240   1.082       .  S
N241        N242   1.324       .  A
N241        C245   1.345       .  A
N241       Cu249   2.076       .  S
N242        C243   1.346       .  A
N242       Cu248   2.082       .  S
C243        C244   1.383       .  A
C243        H246   1.082       .  S
C244        C245   1.383       .  A
C244        C340   1.472       .  S
C245        H247   1.082       .  S
Cu248       N251   2.081       .  S
Cu249       N259   2.074       .  S
Cu250       N252   2.068       .  S
Cu250       N258   2.067       .  S
N251        N252   1.321       .  A
N251        C255   1.348       .  A
N252        C253   1.344       .  A
C253        C254   1.382       .  A
C253        H256   1.082       .  S
C254        C255   1.386       .  A
C255        H257   1.082       .  S
N258        N259   1.322       .  A
N258        C262   1.342       .  A
N259        C260   1.347       .  A
C260        C261   1.382       .  A
C260        H263   1.082       .  S
C261        C262   1.379       .  A
C261        C278   1.464       .  S
C262        H264   1.082       .  S
N265        N266   1.322       .  A
N265        C269   1.347       .  A
N265       Cu273   2.080       .  S
N266        C267   1.344       .  A
N266       Cu272   2.066       .  S
C267        C268   1.381       .  A
C267        H270   1.082       .  S
C268        C269   1.386       .  A
C268        C443   1.471       .  S
C269        H271   1.082       .  S
Cu272       N275   2.067       .  S
Cu273       N283   2.081       .  S
Cu274       N276   2.076       .  S
Cu274       N282   2.077       .  S
N275        N276   1.322       .  A
N275        C279   1.343       .  A
N276        C277   1.346       .  A
C277        C278   1.382       .  A
C277        H280   1.082       .  S
C278        C279   1.380       .  A
C279        H281   1.082       .  S
N282        N283   1.323       .  A
N282        C286   1.347       .  A
N283        C284   1.345       .  A
C284        C285   1.382       .  A
C284        H287   1.082       .  S
C285        C286   1.384       .  A
C285        C408   1.473       .  S
C286        H288   1.082       .  S
N289        N290   1.322       .  A
N289        C293   1.349       .  A
N289       Cu297   2.083       .  S
N290        C291   1.342       .  A
N290       Cu296   2.064       .  S
C291        C292   1.379       .  A
C291        H294   1.082       .  S
C292        C293   1.384       .  A
C292        C326   1.466       .  S
C293        H295   1.082       .  S
Cu296       N299   2.064       .  S
Cu297       N307   2.085       .  S
Cu298       N300   2.081       .  S
Cu298       N306   2.082       .  S
N299        N300   1.321       .  A
N299        C303   1.343   1_455  A
N300        C301   1.348   1_455  A
C301        C302   1.386       .  A
C301        H304   1.082       .  S
C302        C303   1.381       .  A
C303        H305   1.082       .  S
N306        N307   1.324       .  A
N306        C310   1.346       .  A
N307        C308   1.346       .  A
C308        C309   1.384       .  A
C308        H311   1.082       .  S
C309        C310   1.383       .  A
C310        H312   1.082       .  S
N313        N314   1.321       .  A
N313        C317   1.347       .  A
N313       Cu321   2.078       .  S
N314        C315   1.344       .  A
N314       Cu320   2.068       .  S
C315        C316   1.381       .  A
C315        H318   1.082       .  S
C316        C317   1.386       .  A
C316        C395   1.472       .  S
C317        H319   1.082       .  S
Cu320       N323   2.068       .  S
Cu321       N331   2.079       .  S
Cu322       N324   2.079       .  S
Cu322       N330   2.081       .  S
N323        N324   1.322       .  A
N323        C327   1.343       .  A
N324        C325   1.348       .  A
C325        C326   1.383       .  A
C325        H328   1.082       .  S
C326        C327   1.380       .  A
C327        H329   1.082       .  S
N330        N331   1.324       .  A
N330        C334   1.347       .  A
N331        C332   1.344       .  A
C332        C333   1.383       .  A
C332        H335   1.082       .  S
C333        C334   1.383       .  A
C333        C427   1.473       .  S
C334        H336   1.082       .  S
N337        N338   1.322       .  A
N337        C341   1.346       .  A
N337       Cu345   2.074       .  S
N338        C339   1.345       .  A
N338       Cu344   2.073       .  S
C339        C340   1.383       .  A
C339        H342   1.082       .  S
C340        C341   1.384       .  A
C341        H343   1.082       .  S
Cu344       N347   2.074   1_455  S
Cu345       N355   2.074       .  S
Cu346       N348   2.081   1_455  S
Cu346       N354   2.081       .  S
N347        N348   1.323       .  A
N347        C351   1.344       .  A
N348        C349   1.348       .  A
C349        C350   1.384       .  A
C349        H352   1.082       .  S
C350        C351   1.382       .  A
C351        H353   1.082       .  S
N354        N355   1.323       .  A
N354        C358   1.346       .  A
N355        C356   1.345       .  A
C356        C357   1.382       .  A
C356        H359   1.082       .  S
C357        C358   1.383       .  A
C357        C374   1.470       .  S
C358        H360   1.082       .  S
N361        N362   1.324       .  A
N361        C365   1.348       .  A
N361       Cu369   2.088       .  S
N362        C363   1.343       .  A
N362       Cu368   2.073       .  S
C363        C364   1.382       .  A
C363        H366   1.082       .  S
C364        C365   1.385       .  A
C364        C392   1.474       .  S
C365        H367   1.082       .  S
Cu368       N371   2.072       .  S
Cu369       N379   2.088       .  S
Cu370       N372   2.071       .  S
Cu370       N378   2.071       .  S
N371        N372   1.321       .  A
N371        C375   1.345       .  A
N372        C373   1.345       .  A
C373        C374   1.383       .  A
C373        H376   1.082       .  S
C374        C375   1.383       .  A
C375        H377   1.082       .  S
N378        N379   1.323       .  A
N378        C382   1.343       .  A
N379        C380   1.349       .  A
C380        C381   1.386       .  A
C380        H383   1.082       .  S
C381        C382   1.382       .  A
C381        C411   1.474       .  S
C382        H384   1.082       .  S
C385        C390   1.380       .  A
C385        C386   1.405       .  A
C385        O391   1.321       .  A
C386        C387   1.404       .  A
C386        H397   1.082       .  S
C387        C396   1.363       .  A
C387        C388   1.380       .  A
C388        C389   1.402       .  A
C388        O394   1.318       .  A
C389        C390   1.402       .  A
C389        H398   1.082       .  S
C390        C393   1.360       .  A
O391        C392   1.332   1_565  A
C392        C393   1.392   1_545  A
C393        H399   1.082       .  S
O394        C395   1.330       .  A
C395        C396   1.392       .  A
C396        H400   1.082       .  S
C401        C406   1.380   1_556  A
C401        C402   1.401       .  A
C401        O407   1.318   1_556  A
C402        C403   1.401       .  A
C402        H413   1.082       .  S
C403        C412   1.359       .  A
C403        C404   1.380       .  A
C404        C405   1.406       .  A
C404        O410   1.322       .  A
C405        C406   1.406   1_556  A
C405        H414   1.082   1_556  S
C406        C409   1.364       .  A
O407        C408   1.330       .  A
C408        C409   1.393       .  A
C409        H415   1.082       .  S
O410        C411   1.332       .  A
C411        C412   1.391       .  A
C412        H416   1.082       .  S
C417        C422   1.380       .  A
C417        C418   1.402       .  A
C417        O423   1.318   1_556  A
C418        C419   1.401       .  A
C418        H429   1.082   1_556  S
C419        C428   1.360       .  A
C419        C420   1.380       .  A
C420        C421   1.406       .  A
C420        O426   1.320       .  A
C421        C422   1.405       .  A
C421        H430   1.082       .  S
C422        C425   1.365       .  A
O423        C424   1.331       .  A
C424        C425   1.393   1_554  A
C425        H431   1.082       .  S
O426        C427   1.332       .  A
C427        C428   1.391       .  A
C428        H432   1.082       .  S
C433        C438   1.380       .  A
C433        C434   1.405       .  A
C433        O439   1.321       .  A
C434        C435   1.404       .  A
C434        H445   1.082       .  S
C435        C444   1.364       .  A
C435        C436   1.380       .  A
C436        C437   1.402       .  A
C436        O442   1.318       .  A
C437        C438   1.402       .  A
C437        H446   1.082       .  S
C438        C441   1.360       .  A
O439        C440   1.332       .  A
C440        C441   1.392       .  A
C441        H447   1.082       .  S
O442        C443   1.330       .  A
C443        C444   1.392       .  A
C444        H448   1.082       .  S
C449        C454   1.380       .  A
C449        C450   1.402   1_565  A
C449        O455   1.317       .  A
C450        C451   1.401       .  A
C450        H461   1.082       .  S
C451        C460   1.359       .  A
C451        C452   1.380       .  A
C452        C453   1.405       .  A
C452        O458   1.320       .  A
C453        C454   1.404   1_545  A
C453        H462   1.082       .  S
C454        C457   1.364       .  A
O455        C456   1.330       .  A
C456        C457   1.392       .  A
C457        H463   1.082       .  S
O458        C459   1.332       .  A
C459        C460   1.391       .  A
C460        H464   1.082       .  S
C465        C470   1.380       .  A
C465        C466   1.401       .  A
C465        O471   1.317   1_556  A
C466        C467   1.400       .  A
C466        H477   1.082   1_556  S
C467        C476   1.359       .  A
C467        C468   1.380       .  A
C468        C469   1.405       .  A
C468        O474   1.321       .  A
C469        C470   1.405       .  A
C469        H478   1.082       .  S
C470        C473   1.364       .  A
O471        C472   1.330       .  A
C472        C473   1.392   1_554  A
C473        H479   1.082       .  S
O474        C475   1.332       .  A
C475        C476   1.390       .  A
C476        H480   1.082       .  S
C481        C486   1.380       .  A
C481        C482   1.402       .  A
C481        O487   1.318       .  A
C482        C483   1.401       .  A
C482        H493   1.082       .  S
C483        C492   1.360       .  A
C483        C484   1.380   1_556  A
C484        C485   1.406   1_554  A
C484        O490   1.321       .  A
C485        C486   1.405       .  A
C485        H494   1.082   1_556  S
C486        C489   1.365       .  A
O487        C488   1.330       .  A
C488        C489   1.393       .  A
C489        H495   1.082       .  S
O490        C491   1.332       .  A
C491        C492   1.391   1_554  A
C492        H496   1.082       .  S
C497        C502   1.380       .  A
C497        C498   1.403       .  A
C497        O503   1.318       .  A
C498        C499   1.402       .  A
C498        H509   1.082       .  S
C499        C508   1.360       .  A
C499        C500   1.380       .  A
C500        C501   1.405       .  A
C500        O506   1.320       .  A
C501        C502   1.404       .  A
C501        H510   1.082       .  S
C502        C505   1.364       .  A
O503        C504   1.331       .  A
C504        C505   1.392       .  A
C505        H511   1.082       .  S
O506        C507   1.331       .  A
C507        C508   1.392       .  A
C508        H512   1.082       .  S
