geometry optimzed in LAMMPS
_audit_creation_date              2020-11-30 
_audit_creation_method            'lammps2cif' 
_symmetry_space_group_name_H-M    'P1' 
_symmetry_Int_Tables_number       1 
_symmetry_cell_setting            triclinic 
loop_ 
_symmetry_equiv_pos_as_xyz 
  x,y,z 
_cell_length_a                    46.71132963084452 
_cell_length_b                    21.235302083291955 
_cell_length_c                    30.791074490980584 
_cell_angle_alpha                 90.12740673651585 
_cell_angle_beta                  90.60379922552114 
_cell_angle_gamma                 89.68801438432797 
loop_ 
_atom_site_label 
_atom_site_type_symbol 
_atom_site_fract_x 
_atom_site_fract_y 
_atom_site_fract_z 
_atom_site_charge 
C1          C  0.99976760  0.50017340  0.71046751    -0.01550
C2          C  0.49940608  0.25184525  0.80692944    -0.01550
C3          C  0.49950862  0.25160273  0.20996621    -0.01550
C4          C  0.50175538  0.00330188  0.30653245    -0.01550
C5          C  0.25113085  0.24826078  0.30814352    -0.01550
C6          C  0.24917313  0.99985678  0.21141567    -0.01550
O7          O  0.47150935  0.95752808  0.36255817    -0.56880
C8          C  0.43156177  0.49591446  0.48362877     0.75750
O9          O  0.38632996  0.06159408  0.35841105    -0.58040
C10         C  0.47540006  0.00121996  0.33542978     0.75720
C11         C  0.38807097  0.40188719  0.36966465     0.78110
Cd12       Cd  0.42567155  0.00086124  0.39044578     1.37470
O13         O  0.44966241  0.52608939  0.46166761    -0.56880
O14         O  0.41367207  0.39063208  0.38140998    -0.55690
C15         C  0.38905151  0.10725097  0.38450722     0.78070
O16         O  0.38112143  0.45836551  0.36247309    -0.58060
O17         O  0.41284348  0.46569546  0.46253881    -0.56510
O18         O  0.45591798  0.04284927  0.33352194    -0.56500
O19         O  0.41058097  0.10669756  0.40990748    -0.55670
O20         O  0.28181613  0.29750416  0.36302016    -0.56880
C21         C  0.31371541  0.25798363  0.48494018     0.75750
O22         O  0.37060696  0.20160691  0.41387298    -0.58130
C23         C  0.27794897  0.25224265  0.33685035     0.75720
C24         C  0.36671696  0.35279948  0.37017453     0.78110
Cd25       Cd  0.32745854  0.25743862  0.39372439     1.37470
O26         O  0.31226249  0.20805311  0.46259422    -0.56880
O27         O  0.34025814  0.36522173  0.37228246    -0.55690
C28         C  0.36771150  0.15734018  0.38672003     0.78070
O29         O  0.37413830  0.29616968  0.37386158    -0.58060
O30         O  0.31847625  0.30825894  0.46451158    -0.56510
O31         O  0.29757611  0.21086703  0.33616020    -0.56500
O32         O  0.34533928  0.15775874  0.36289553    -0.55670
O33         O  0.44992622  0.02214170  0.55466060    -0.56880
C34         C  0.47314011  0.50258430  0.68124982     0.75750
O35         O  0.37794434  0.04855398  0.64812237    -0.58040
C36         C  0.43061578  0.99782703  0.53113795     0.75720
C37         C  0.38714199  0.40114463  0.63737131     0.78110
Cd38       Cd  0.42325196  0.50437264  0.62460897     1.37470
O39         O  0.46861291  0.54731229  0.65506114    -0.56880
O40         O  0.41063244  0.39491076  0.61719880    -0.55690
C41         C  0.38443235  0.10454030  0.64006188     0.78070
O42         O  0.38262280  0.45253856  0.65708203    -0.58060
O43         O  0.45406732  0.46040352  0.68187687    -0.56510
O44         O  0.40923482  0.97653253  0.55060703    -0.56500
O45         O  0.40973667  0.11520930  0.62796606    -0.55670
O46         O  0.27384005  0.24413888  0.64015528    -0.56880
C47         C  0.31320792  0.25689800  0.53253023     0.75750
O48         O  0.37040690  0.30249876  0.61428544    -0.58040
C49         C  0.27570285  0.25132953  0.68089929     0.75720
C50         C  0.36313874  0.15397792  0.64091352     0.78110
Cd51       Cd  0.32482489  0.25433512  0.62444010     1.37470
O52         O  0.31528177  0.20566277  0.55318454    -0.56880
O53         O  0.33666750  0.14282906  0.63621815    -0.55690
C54         C  0.36540560  0.35240683  0.63509611     0.78070
O55         O  0.37075538  0.21048954  0.64261806    -0.58060
O56         O  0.31351762  0.30709593  0.55480933    -0.56510
O57         O  0.30061669  0.26174335  0.69589375    -0.56500
O58         O  0.34059996  0.35894474  0.65123808    -0.55670
O59         O  0.47258523  0.21653847  0.86989671    -0.56880
C60         C  0.43409664  0.25682331  0.98507445     0.75750
O61         O  0.37583605  0.28935979  0.88654069    -0.58040
C62         C  0.47365243  0.25169897  0.83689781     0.75720
C63         C  0.38829390  0.14318173  0.88002157     0.78110
Cd64       Cd  0.42425822  0.24854791  0.89268156     1.37460
O65         O  0.43951453  0.20707052  0.96420496    -0.56880
O66         O  0.40806113  0.14437221  0.90824107    -0.55690
C67         C  0.38330427  0.34590605  0.88132128     0.78070
O68         O  0.38734661  0.18763454  0.85280775    -0.58060
O69         O  0.42712905  0.30471472  0.96293233    -0.56510
O70         O  0.45151275  0.28442417  0.82924674    -0.56500
O71         O  0.40991304  0.35744331  0.88016950    -0.55670
O72         O  0.31067428  0.04874315  0.96340354    -0.56880
C73         C  0.27578136  0.50035686  0.83613324     0.75750
O74         O  0.36769685  0.05461455  0.91204809    -0.58040
C75         C  0.31214805  0.99838713  0.98520026     0.75720
C76         C  0.36218020  0.39628767  0.88005907     0.78110
Cd77       Cd  0.32489550  0.49943985  0.89371978     1.37470
O78         O  0.27927082  0.54296340  0.86453447    -0.56880
O79         O  0.33666360  0.38750782  0.89217310    -0.55690
C80         C  0.36660325  0.09458751  0.88188244     0.78070
O81         O  0.36917867  0.45152407  0.86967232    -0.58060
O82         O  0.29573049  0.45997705  0.83350895    -0.56510
O83         O  0.31619595  0.94813491  0.96409224    -0.56500
O84         O  0.34540208  0.09203167  0.85591323    -0.55670
O85         O  0.43832026  0.20889088  0.05518358    -0.56880
C86         C  0.47320396  0.25243820  0.18018870     0.75750
O87         O  0.38217503  0.30786059  0.16088298    -0.58040
C88         C  0.43334574  0.25759740  0.03260978     0.75720
C89         C  0.38158313  0.16030124  0.13226793     0.78110
Cd90       Cd  0.42289078  0.25770525  0.12480114     1.37460
O91         O  0.47169527  0.28746841  0.14706947    -0.56880
O92         O  0.40723863  0.15175763  0.14489983    -0.55690
C93         C  0.38778353  0.36154200  0.14582876     0.78070
O94         O  0.37538809  0.21299851  0.11567192    -0.58060
O95         O  0.45104832  0.22067983  0.18819167    -0.56510
O96         O  0.42546118  0.30622013  0.05284265    -0.56500
O97         O  0.41187833  0.36876917  0.12827519    -0.55670
O98         O  0.27793445  0.96349412  0.15019716    -0.56880
C99         C  0.31230586  0.49890394  0.03282186     0.75750
O100        O  0.36619459  0.05874227  0.15281989    -0.58040
C101        C  0.27524751  0.00129933  0.18172780     0.75720
C102        C  0.36627304  0.41099419  0.14337761     0.78110
Cd103      Cd  0.32412510  0.00470569  0.12504213     1.37460
O104        O  0.30875554  0.54914497  0.05417766    -0.56880
O105        O  0.34087353  0.40350077  0.15638207    -0.55690
C106        C  0.36037202  0.11046303  0.13449347     0.78070
O107        O  0.37173067  0.46140257  0.12373668    -0.58060
O108        O  0.31866018  0.45014632  0.05442788    -0.56510
O109        O  0.29562696  0.03974673  0.18734976    -0.56500
O110        O  0.33600295  0.11588771  0.11629142    -0.55670
O111        O  0.20218636  0.96024180  0.83128742    -0.56880
C112        C  0.18670757  0.49407050  0.98523115     0.75750
O113        O  0.12924160  0.04397956  0.86687453    -0.58040
C114        C  0.22317261  0.99694404  0.83709818     0.75720
C115        C  0.13177101  0.40488021  0.88346171     0.78110
Cd116      Cd  0.17398180  0.99947484  0.89343885     1.37470
O117        O  0.18363842  0.54558342  0.96534558    -0.56880
O118        O  0.15531988  0.40050084  0.86333683    -0.55690
C119        C  0.13646130  0.10024167  0.87273086     0.78070
O120        O  0.12844539  0.45161950  0.90840345    -0.58060
O121        O  0.18684385  0.44459571  0.96222744    -0.56510
O122        O  0.22110933  0.03452091  0.86884565    -0.56500
O123        O  0.16236468  0.11074477  0.88244164    -0.55670
O124        O  0.04810666  0.23992013  0.96128090    -0.56880
C125        C  0.02626349  0.24991683  0.83565827     0.75750
O126        O  0.11330916  0.30858192  0.85648244    -0.58040
C127        C  0.06980516  0.25017685  0.98507797     0.75720
C128        C  0.11520769  0.14990756  0.87344202     0.78110
Cd129      Cd  0.07621275  0.24896563  0.89156489     1.37460
O130        O  0.03113372  0.20511458  0.86174560    -0.56880
O131        O  0.08902454  0.13835809  0.87963731    -0.55690
C132        C  0.10997726  0.35631440  0.88062235     0.78070
O133        O  0.12255820  0.20663779  0.87230659    -0.58060
O134        O  0.04507771  0.29270718  0.83484270    -0.56510
O135        O  0.09308420  0.25851608  0.96585980    -0.56500
O136        O  0.08795816  0.35830220  0.90447881    -0.55670
O137        O  0.21942180  0.45184445  0.15483966    -0.56880
C138        C  0.18673942  0.99196271  0.03280383     0.75750
O139        O  0.12774467  0.45130492  0.14740488    -0.58040
C140        C  0.22272743  0.49612613  0.18194616     0.75720
C141        C  0.13247338  0.08985509  0.13099827     0.78110
Cd142      Cd  0.17353369  0.49102306  0.12417738     1.37470
O143        O  0.18815472  0.04155364  0.05553186    -0.56880
O144        O  0.15538277  0.09121915  0.15358193    -0.55690
C145        C  0.13505530  0.39433798  0.14684091     0.78070
O146        O  0.12925477  0.04416478  0.10506810    -0.58060
O147        O  0.18238307  0.94124004  0.05289772    -0.56510
O148        O  0.20273472  0.53658862  0.18301366    -0.56500
O149        O  0.16127404  0.38190585  0.14135295    -0.55670
O150        O  0.04958832  0.22746876  0.05485639    -0.56880
C151        C  0.02594788  0.25184711  0.18111715     0.75750
O152        O  0.11410233  0.18624372  0.15845358    -0.58040
C153        C  0.06921583  0.25197177  0.03256936     0.75720
C154        C  0.11366554  0.34543491  0.14654235     0.78110
Cd155      Cd  0.07540372  0.24772605  0.12573282     1.37470
O156        O  0.03036481  0.29488971  0.15370271    -0.56880
O157        O  0.08785057  0.35754746  0.13647749    -0.55690
C158        C  0.11105004  0.13987612  0.13305988     0.78070
O159        O  0.12070949  0.28854641  0.15141255    -0.58060
O160        O  0.04487039  0.20892562  0.18317469    -0.56510
O161        O  0.08967248  0.27674596  0.05330667    -0.56500
O162        O  0.08928571  0.13998052  0.10808342    -0.55670
O163        O  0.18574815  0.29431985  0.55441775    -0.56880
C164        C  0.22270984  0.24436627  0.68166176     0.75750
O165        O  0.12712964  0.28872425  0.63578394    -0.58040
C166        C  0.18817658  0.24382597  0.53297799     0.75720
C167        C  0.13193470  0.15102153  0.63947671     0.78110
Cd168      Cd  0.17393953  0.24390218  0.62376705     1.37470
O169        O  0.21916115  0.20038693  0.65424349    -0.56880
O170        O  0.15411989  0.15224280  0.66361410    -0.55690
C171        C  0.13519902  0.34510725  0.63713621     0.78070
O172        O  0.13023957  0.19089231  0.60933847    -0.58060
O173        O  0.20276129  0.28488478  0.68367165    -0.56510
O174        O  0.18735831  0.19306995  0.55427205    -0.56500
O175        O  0.16188987  0.35541745  0.63539251    -0.55670
O176        O  0.05110787  0.47214586  0.55556292    -0.56880
C177        C  0.02590337  0.99924008  0.68112206     0.75750
O178        O  0.12156552  0.45132563  0.64665382    -0.58040
C179        C  0.07124794  0.49482086  0.53335236     0.75720
C180        C  0.10989960  0.10348343  0.64269877     0.78110
Cd181      Cd  0.07583447  0.99776780  0.62681281     1.37460
O182        O  0.02817456  0.03607490  0.64905077    -0.56880
O183        O  0.08816746  0.10589684  0.61781498    -0.55690
C184        C  0.11428982  0.39577197  0.63753836     0.78070
O185        O  0.11282278  0.05575220  0.66681220    -0.58060
O186        O  0.04709154  0.96318632  0.68831376    -0.56510
O187        O  0.09199577  0.51795149  0.55419125    -0.56500
O188        O  0.08843800  0.38648589  0.62636980    -0.55670
O189        O  0.05104915  0.97726610  0.46208946    -0.56880
C190        C  0.02800687  0.50252154  0.33653307     0.75750
O191        O  0.11754645  0.04984374  0.35996545    -0.58040
C192        C  0.07179772  0.99443373  0.48585073     0.75720
C193        C  0.11591613  0.39375716  0.37470334     0.78110
Cd194      Cd  0.07805892  0.49502073  0.39232506     1.37460
O195        O  0.03093564  0.46138356  0.36587565    -0.56880
O196        O  0.09043323  0.38336901  0.38609432    -0.55690
C197        C  0.11399717  0.09861388  0.38298668     0.78070
O198        O  0.12266935  0.44975610  0.36724799    -0.58060
O199        O  0.04852354  0.54084002  0.33289703    -0.56510
O200        O  0.09402390  0.01164194  0.46656673    -0.56500
O201        O  0.09136545  0.10267010  0.40548001    -0.55670
O202        O  0.18471650  0.29501908  0.46461060    -0.56880
C203        C  0.22512928  0.24620477  0.33785287     0.75750
O204        O  0.13194155  0.19426334  0.40962886    -0.58040
C205        C  0.18843676  0.24429120  0.48541222     0.75720
C206        C  0.13726633  0.34428641  0.37473267     0.78110
Cd207      Cd  0.17600876  0.24525750  0.39396650     1.37460
O208        O  0.22690171  0.25753304  0.37816354    -0.56880
O209        O  0.16369575  0.35582802  0.37951041    -0.55690
C210        C  0.13580621  0.14692509  0.38562045     0.78070
O211        O  0.12979001  0.28764530  0.37425507    -0.58060
O212        O  0.20041101  0.23229178  0.32351711    -0.56510
O213        O  0.18944069  0.19390234  0.46336971    -0.56500
O214        O  0.15954425  0.14260479  0.36595614    -0.55670
C215        C  0.24956604  0.24847368  0.71029253    -0.01550
C216        C  0.24908183  0.99758737  0.80714631    -0.01550
C217        C  0.24871645  0.06052662  0.77906371    -0.05190
C218        C  0.22594437  0.10509504  0.78241876    -0.16320
C219        C  0.22670141  0.16619417  0.76406810     0.12010
C220        C  0.25022527  0.18542305  0.73824478    -0.05120
C221        C  0.27256669  0.13998905  0.73361323    -0.16350
C222        C  0.27224988  0.07966315  0.75328394     0.12040
S223        S  0.19657929  0.21836970  0.77370259    -0.31320
S224        S  0.30234181  0.02735507  0.74390342    -0.31320
H225        H  0.32026354  0.07052367  0.72299225     0.30050
H226        H  0.18216851  0.18098592  0.80402342     0.30040
H227        H  0.20689022  0.09292956  0.79986772     0.20630
H228        H  0.29064482  0.15019212  0.71347577     0.20640
C229        C  0.24933495  0.31339159  0.73531017    -0.05190
C230        C  0.25145291  0.31579241  0.78077082    -0.16320
C231        C  0.25066108  0.37308710  0.80415568     0.12010
C232        C  0.24912888  0.43266689  0.78196517    -0.05120
C233        C  0.24705492  0.43028853  0.73651887    -0.16350
C234        C  0.24782184  0.37297867  0.71313702     0.12040
S235        S  0.25132519  0.36756150  0.86301459    -0.31320
S236        S  0.24698927  0.37870695  0.65435359    -0.31320
H237        H  0.25264519  0.44351365  0.65110896     0.30050
H238        H  0.24653006  0.30242186  0.86633655     0.30040
H239        H  0.25381543  0.27230638  0.79853215     0.20630
H240        H  0.24472319  0.47379587  0.71877009     0.20640
C241        C  0.25076025  0.18340003  0.28332665    -0.05190
C242        C  0.24771650  0.18133959  0.23796046    -0.16320
C243        C  0.24747760  0.12420869  0.21447694     0.12010
C244        C  0.24904379  0.06460230  0.23658996    -0.05120
C245        C  0.25192925  0.06664792  0.28198897    -0.16350
C246        C  0.25206193  0.12384201  0.30546822     0.12040
S247        S  0.24610258  0.12994923  0.15560218    -0.31320
S248        S  0.25337815  0.11820651  0.36427330    -0.31320
H249        H  0.25002673  0.05265033  0.36782077     0.30050
H250        H  0.24789353  0.19581089  0.15204057     0.30040
H251        H  0.24584047  0.22509901  0.22039244     0.20630
H252        H  0.25388819  0.02288665  0.29955766     0.20640
C253        C  0.24979913  0.43718278  0.23980013    -0.05190
C254        C  0.27422959  0.39688233  0.23978282    -0.16320
C255        C  0.27465553  0.33543636  0.25750177     0.12010
C256        C  0.25032299  0.31099107  0.27964511    -0.05120
C257        C  0.22610220  0.35197888  0.28040230    -0.16350
C258        C  0.22547717  0.41283801  0.26186132     0.12040
S259        S  0.30832743  0.29389242  0.25144311    -0.31320
S260        S  0.19163419  0.45395780  0.26712073    -0.31320
H261        H  0.20206762  0.01533222  0.26843016     0.30050
H262        H  0.29770693  0.23265079  0.25047382     0.30040
H263        H  0.29387486  0.41248010  0.22513776     0.20630
H264        H  0.20671147  0.33785924  0.29626342     0.20640
C265        C  0.99936845  0.18702206  0.23517260    -0.05190
C266        C  0.99940292  0.18507674  0.28067829    -0.16320
C267        C  0.00076453  0.12784614  0.30395621     0.12010
C268        C  0.00140409  0.06815669  0.28160507    -0.05120
C269        C  0.50133525  0.07020556  0.23610491    -0.16350
C270        C  0.49954389  0.12732341  0.21287459     0.12040
S271        S  0.00166876  0.13350113  0.36284063    -0.31320
S272        S  0.49758331  0.12146513  0.15405163    -0.31320
H273        H  0.49220875  0.05647733  0.15108015     0.30050
H274        H  0.00543288  0.19899113  0.36629836     0.30040
H275        H  0.99836280  0.22883749  0.29847872     0.20630
H276        H  0.50258118  0.02659256  0.21817058     0.20640
C277        C  0.49981400  0.31494101  0.23782798    -0.05190
C278        C  0.47637169  0.35822259  0.23613346    -0.16320
C279        C  0.47717759  0.41948793  0.25440158     0.12010
C280        C  0.50169680  0.44046931  0.27803294    -0.05120
C281        C  0.02527124  0.39751725  0.27922566    -0.16350
C282        C  0.02435278  0.33598242  0.26134833     0.12040
S283        S  0.44624553  0.47018459  0.24641592    -0.31320
S284        S  0.05517920  0.28510968  0.26958183    -0.31320
H285        H  0.06999556  0.32307637  0.29970169     0.30050
H286        H  0.43098917  0.43167092  0.21715820     0.30040
H287        H  0.45668014  0.34478844  0.22017637     0.20630
H288        H  0.04511790  0.41141154  0.29454437     0.20640
C289        C  0.99895170  0.31661314  0.78196130    -0.05190
C290        C  0.99820847  0.31864437  0.73647476    -0.16320
C291        C  0.99913335  0.37580182  0.71324083     0.12010
C292        C  0.99963570  0.43549954  0.73558427    -0.05120
C293        C  0.50024959  0.43348331  0.78108655    -0.16350
C294        C  0.49931548  0.37627908  0.80431721     0.12040
S295        S  0.99991983  0.36990508  0.65438319    -0.31320
S296        S  0.49852106  0.38197245  0.86315956    -0.31320
H297        H  0.49339038  0.44714015  0.86635633     0.30050
H298        H  0.00566125  0.30496259  0.65133475     0.30040
H299        H  0.99696146  0.27499363  0.71858359     0.20630
H300        H  0.50151954  0.47714532  0.79896957     0.20640
C301        C  0.49903692  0.18880707  0.77877868    -0.05190
C302        C  0.47555528  0.14626401  0.78055747    -0.16320
C303        C  0.47599063  0.08501471  0.76223739     0.12010
C304        C  0.50010137  0.06335327  0.73849295    -0.05120
C305        C  0.02358215  0.10591210  0.73671279    -0.16350
C306        C  0.02309126  0.16727537  0.75487283     0.12040
S307        S  0.44504659  0.03537288  0.77000758    -0.31320
S308        S  0.05386586  0.21726191  0.74666447    -0.31320
H309        H  0.06803608  0.17930686  0.71607714     0.30050
H310        H  0.43073896  0.07345046  0.80037543     0.30040
H311        H  0.45613763  0.16027269  0.79664987     0.20630
H312        H  0.04303264  0.09187245  0.72073418     0.20640
C313        C  0.99975803  0.00017889  0.71046537    -0.01550
C314        C  0.49940164  0.75184799  0.80692381    -0.01550
C315        C  0.49950285  0.75161019  0.20997211    -0.01550
C316        C  0.50176146  0.50329449  0.30652819    -0.01550
C317        C  0.25113700  0.74826613  0.30814387    -0.01550
C318        C  0.24916790  0.49985746  0.21142599    -0.01550
O319        O  0.47151585  0.45751620  0.36255359    -0.56880
C320        C  0.43154953  0.99595378  0.48363699     0.75750
O321        O  0.38634083  0.56159866  0.35839535    -0.58040
C322        C  0.47540601  0.50120846  0.33542546     0.75720
C323        C  0.38807885  0.90188098  0.36967671     0.78110
Cd324      Cd  0.42567504  0.50084634  0.39043936     1.37470
O325        O  0.44967024  0.02606932  0.46167513    -0.56880
O326        O  0.41367549  0.89064065  0.38145167    -0.55690
C327        C  0.38905387  0.60723837  0.38450803     0.78070
O328        O  0.38113054  0.95835131  0.36245169    -0.58060
O329        O  0.41281473  0.96578366  0.46254769    -0.56510
O330        O  0.45592271  0.54283498  0.33351716    -0.56500
O331        O  0.41057555  0.60666828  0.40992334    -0.55670
O332        O  0.28182418  0.79750796  0.36301841    -0.56880
C333        C  0.31370855  0.75797914  0.48493930     0.75750
O334        O  0.37060010  0.70157262  0.41389318    -0.58130
C335        C  0.27795568  0.75224572  0.33684956     0.75720
C336        C  0.36672682  0.85278922  0.37018816     0.78110
Cd337      Cd  0.32746274  0.75743217  0.39372766     1.37470
O338        O  0.31225494  0.70804925  0.46259267    -0.56880
O339        O  0.34026589  0.86520527  0.37225873    -0.55690
C340        C  0.36771338  0.65732730  0.38672163     0.78070
O341        O  0.37415000  0.79616602  0.37391287    -0.58060
O342        O  0.31847352  0.80825371  0.46451195    -0.56510
O343        O  0.29758108  0.71086562  0.33616114    -0.56500
O344        O  0.34534968  0.65776758  0.36287864    -0.55670
O345        O  0.44992329  0.52217435  0.55464677    -0.56880
C346        C  0.47312770  0.00259504  0.68125318     0.75750
O347        O  0.37801033  0.54860841  0.64831429    -0.58040
C348        C  0.43063042  0.49778034  0.53113008     0.75720
C349        C  0.38715291  0.90113614  0.63742707     0.78110
Cd350      Cd  0.42323729  0.00439059  0.62461966     1.37470
O351        O  0.46860034  0.04732438  0.65506460    -0.56880
O352        O  0.41063188  0.89492544  0.61722111    -0.55690
C353        C  0.38446233  0.60454836  0.64003277     0.78070
O354        O  0.38264387  0.95250995  0.65716833    -0.58060
O355        O  0.45405289  0.96041772  0.68188553    -0.56510
O356        O  0.40926765  0.47640653  0.55060485    -0.56500
O357        O  0.40972823  0.61516352  0.62773790    -0.55670
O358        O  0.27385281  0.74412488  0.64015476    -0.56880
C359        C  0.31320071  0.75689254  0.53252948     0.75750
O360        O  0.37041384  0.80251305  0.61431139    -0.58040
C361        C  0.27571619  0.75131970  0.68089885     0.75720
C362        C  0.36316992  0.65398863  0.64087750     0.78110
Cd363      Cd  0.32483581  0.75432926  0.62443414     1.37470
O364        O  0.31527213  0.70565658  0.55318361    -0.56880
O365        O  0.33668541  0.64283356  0.63637848    -0.55690
C366        C  0.36541523  0.85240062  0.63514493     0.78070
O367        O  0.37079694  0.71050109  0.64237848    -0.58060
O368        O  0.31351591  0.80709022  0.55480851    -0.56510
O369        O  0.30063082  0.76173291  0.69589276    -0.56500
O370        O  0.34061029  0.85892335  0.65129265    -0.55670
O371        O  0.47255292  0.71644898  0.86983742    -0.56880
C372        C  0.43405857  0.75688366  0.98504740     0.75750
O373        O  0.37582708  0.78934997  0.88629990    -0.58040
C374        C  0.47364539  0.75170123  0.83688774     0.75720
C375        C  0.38828413  0.64315799  0.88006291     0.78110
Cd376      Cd  0.42424272  0.74854713  0.89265332     1.37460
O377        O  0.43965061  0.70723424  0.96416546    -0.56880
O378        O  0.40798698  0.64448108  0.90838162    -0.55690
C379        C  0.38330624  0.84592062  0.88123275     0.78070
O380        O  0.38739889  0.68748089  0.85274446    -0.58060
O381        O  0.42692990  0.80467361  0.96291720    -0.56510
O382        O  0.45152915  0.78452504  0.82928317    -0.56500
O383        O  0.40991830  0.85746700  0.88022983    -0.55670
O384        O  0.31067109  0.54876802  0.96338795    -0.56880
C385        C  0.27579192  0.00036540  0.83612895     0.75750
O386        O  0.36764280  0.55468539  0.91214404    -0.58040
C387        C  0.31213143  0.49841277  0.98518817     0.75720
C388        C  0.36218683  0.89631298  0.87999005     0.78110
Cd389      Cd  0.32490552  0.99945709  0.89371940     1.37470
O390        O  0.27928002  0.04297398  0.86452921    -0.56880
O391        O  0.33665619  0.88751095  0.89203177    -0.55690
C392        C  0.36659534  0.59456164  0.88191455     0.78070
O393        O  0.36920428  0.95157897  0.86970910    -0.58060
O394        O  0.29574347  0.95999149  0.83350376    -0.56510
O395        O  0.31616276  0.44814851  0.96408560    -0.56500
O396        O  0.34543999  0.59190985  0.85586446    -0.55670
O397        O  0.43841378  0.70900185  0.05516234    -0.56880
C398        C  0.47319816  0.75245091  0.18019402     0.75750
O399        O  0.38223851  0.80794416  0.16095741    -0.58040
C400        C  0.43330356  0.75763734  0.03258216     0.75720
C401        C  0.38158266  0.66027353  0.13227298     0.78110
Cd402      Cd  0.42289191  0.75768715  0.12478926     1.37460
O403        O  0.47168734  0.78749499  0.14708147    -0.56880
O404        O  0.40728588  0.65160265  0.14462892    -0.55690
C405        C  0.38782895  0.86158258  0.14580851     0.78070
O406        O  0.37533150  0.71311783  0.11595267    -0.58060
O407        O  0.45104489  0.72068068  0.18818925    -0.56510
O408        O  0.42528758  0.80615777  0.05280973    -0.56500
O409        O  0.41189943  0.86875552  0.12816657    -0.55670
O410        O  0.27791928  0.46350701  0.15019700    -0.56880
C411        C  0.31231853  0.99887209  0.03283557     0.75750
O412        O  0.36625517  0.55859551  0.15262953    -0.58040
C413        C  0.27524136  0.50129585  0.18173798     0.75720
C414        C  0.36631721  0.91103376  0.14335455     0.78110
Cd415      Cd  0.32410556  0.50470296  0.12503183     1.37460
O416        O  0.30875049  0.04910813  0.05419138    -0.56880
O417        O  0.34094061  0.90359508  0.15647242    -0.55690
C418        C  0.36037558  0.61042645  0.13449552     0.78070
O419        O  0.37174305  0.96137013  0.12360414    -0.58060
O420        O  0.31868707  0.95012199  0.05444271    -0.56510
O421        O  0.29562835  0.53972193  0.18736905    -0.56500
O422        O  0.33595109  0.61595735  0.11647953    -0.55670
O423        O  0.20217501  0.46025321  0.83128684    -0.56880
C424        C  0.18671955  0.99404905  0.98522903     0.75750
O425        O  0.12922240  0.54397758  0.86689848    -0.58040
C426        C  0.22316213  0.49695294  0.83709750     0.75720
C427        C  0.13177320  0.90488089  0.88348002     0.78110
Cd428      Cd  0.17397132  0.49948820  0.89343765     1.37470
O429        O  0.18365078  0.04556312  0.96534481    -0.56880
O430        O  0.15531577  0.90050270  0.86333828    -0.55690
C431        C  0.13644448  0.60024453  0.87272228     0.78070
O432        O  0.12845727  0.95161271  0.90843149    -0.58060
O433        O  0.18685601  0.94457474  0.96222460    -0.56510
O434        O  0.22109909  0.53453292  0.86884344    -0.56500
O435        O  0.16235157  0.61075511  0.88240629    -0.55670
O436        O  0.04808512  0.74010578  0.96128133    -0.56880
C437        C  0.02625606  0.74991772  0.83565875     0.75750
O438        O  0.11329617  0.80860620  0.85648639    -0.58040
C439        C  0.06980398  0.75015769  0.98507889     0.75720
C440        C  0.11519029  0.64990999  0.87343025     0.78110
Cd441      Cd  0.07620397  0.74897343  0.89156715     1.37460
O442        O  0.03112153  0.70512132  0.86175345    -0.56880
O443        O  0.08901010  0.63836263  0.87965809    -0.55690
C444        C  0.10997603  0.85632188  0.88064483     0.78070
O445        O  0.12253906  0.70664033  0.87226050    -0.58060
O446        O  0.04507359  0.79270077  0.83483882    -0.56510
O447        O  0.09309877  0.75829720  0.96586126    -0.56500
O448        O  0.08796543  0.85829821  0.90451887    -0.55670
O449        O  0.21942966  0.95184055  0.15482802    -0.56880
C450        C  0.18672884  0.49198417  0.03280649     0.75750
O451        O  0.12774097  0.95131594  0.14737055    -0.58040
C452        C  0.22273340  0.99612174  0.18193555     0.75720
C453        C  0.13246074  0.58985209  0.13101032     0.78110
Cd454      Cd  0.17353909  0.99101295  0.12417079     1.37470
O455        O  0.18814392  0.54157396  0.05553584    -0.56880
O456        O  0.15537553  0.59123102  0.15358069    -0.55690
C457        C  0.13504965  0.89434774  0.14683669     0.78070
O458        O  0.12923801  0.54414938  0.10509165    -0.58060
O459        O  0.18237494  0.44126036  0.05290001    -0.56510
O460        O  0.20273873  0.03657949  0.18300538    -0.56500
O461        O  0.16127024  0.88190621  0.14137588    -0.55670
O462        O  0.04956120  0.72757546  0.05486074    -0.56880
C463        C  0.02594216  0.75185633  0.18112210     0.75750
O464        O  0.11409476  0.68624947  0.15845681    -0.58040
C465        C  0.06921770  0.75195942  0.03257023     0.75720
C466        C  0.11365711  0.84545045  0.14654120     0.78110
Cd467      Cd  0.07539825  0.74773354  0.12573668     1.37470
O468        O  0.03036059  0.79490352  0.15371144    -0.56880
O469        O  0.08784743  0.85756027  0.13644263    -0.55690
C470        C  0.11103730  0.63987352  0.13307193     0.78070
O471        O  0.12069480  0.78856547  0.15144976    -0.58060
O472        O  0.04486321  0.70893115  0.18317526    -0.56510
O473        O  0.08970341  0.77662288  0.05330415    -0.56500
O474        O  0.08926914  0.63997246  0.10810279    -0.55670
O475        O  0.18576575  0.79433059  0.55441750    -0.56880
C476        C  0.22272215  0.74436899  0.68165983     0.75750
O477        O  0.12714363  0.78873670  0.63577576    -0.58040
C478        C  0.18819586  0.74383572  0.53297913     0.75720
C479        C  0.13194226  0.65104457  0.63945901     0.78110
Cd480      Cd  0.17395286  0.74391581  0.62376310     1.37470
O481        O  0.21917162  0.70038921  0.65424236    -0.56880
O482        O  0.15411471  0.65228938  0.66362300    -0.55690
C483        C  0.13521101  0.84512136  0.63711692     0.78070
O484        O  0.13026362  0.69088397  0.60929919    -0.58060
O485        O  0.20277542  0.78489218  0.68366830    -0.56510
O486        O  0.18737826  0.69307993  0.55427373    -0.56500
O487        O  0.16190140  0.85543549  0.63537117    -0.55670
O488        O  0.05116588  0.97184766  0.55556269    -0.56880
C489        C  0.02591443  0.49923931  0.68112588     0.75750
O490        O  0.12157115  0.95133987  0.64661785    -0.58040
C491        C  0.07122814  0.99485540  0.53335325     0.75720
C492        C  0.10990375  0.60351441  0.64267974     0.78110
Cd493      Cd  0.07584431  0.49778282  0.62681441     1.37460
O494        O  0.02819200  0.53610337  0.64907123    -0.56880
O495        O  0.08818644  0.60589842  0.61776561    -0.55690
C496        C  0.11429930  0.89578065  0.63751330     0.78070
O497        O  0.11280976  0.55581723  0.66682839    -0.58060
O498        O  0.04709588  0.46315789  0.68829963    -0.56510
O499        O  0.09190036  0.01830731  0.55419270    -0.56500
O500        O  0.08844713  0.88648151  0.62635485    -0.55670
O501        O  0.05099077  0.47768476  0.46208332    -0.56880
C502        C  0.02799988  0.00253174  0.33653696     0.75750
O503        O  0.11752712  0.54991260  0.35994085    -0.58040
C504        C  0.07181607  0.49439471  0.48584941     0.75720
C505        C  0.11592781  0.89376245  0.37472771     0.78110
Cd506      Cd  0.07805348  0.99501018  0.39232606     1.37460
O507        O  0.03092288  0.96141114  0.36589014    -0.56880
O508        O  0.09044542  0.88336636  0.38611357    -0.55690
C509        C  0.11399768  0.59864294  0.38300697     0.78070
O510        O  0.12267804  0.94976394  0.36727900    -0.58060
O511        O  0.04852181  0.04083275  0.33289065    -0.56510
O512        O  0.09411479  0.51116089  0.46657006    -0.56500
O513        O  0.09138222  0.60266574  0.40553834    -0.55670
O514        O  0.18473220  0.79502778  0.46461308    -0.56880
C515        C  0.22513641  0.74621331  0.33785510     0.75750
O516        O  0.13196139  0.69425886  0.40967873    -0.58040
C517        C  0.18845536  0.74430002  0.48541384     0.75720
C518        C  0.13727871  0.84429574  0.37475140     0.78110
Cd519      Cd  0.17601937  0.74526680  0.39397368     1.37460
O520        O  0.22691081  0.75753916  0.37816591    -0.56880
O521        O  0.16370763  0.85583890  0.37953175    -0.55690
C522        C  0.13581071  0.64694515  0.38564151     0.78070
O523        O  0.12980302  0.78765448  0.37426329    -0.58060
O524        O  0.20041750  0.73230133  0.32352153    -0.56510
O525        O  0.18946006  0.69391074  0.46337147    -0.56500
O526        O  0.15953770  0.64264017  0.36594545    -0.55670
C527        C  0.24957825  0.74847127  0.71029179    -0.01550
C528        C  0.24907258  0.49758806  0.80714803    -0.01550
C529        C  0.24871315  0.56052726  0.77906525    -0.05190
C530        C  0.22594398  0.60510299  0.78241757    -0.16320
C531        C  0.22670614  0.66620161  0.76406689     0.12010
C532        C  0.25023254  0.68542232  0.73824567    -0.05120
C533        C  0.27257133  0.63998187  0.73361734    -0.16350
C534        C  0.27224936  0.57965625  0.75328839     0.12040
S535        S  0.19658726  0.71838738  0.77369892    -0.31320
S536        S  0.30233805  0.52733834  0.74391085    -0.31320
H537        H  0.32026876  0.57051078  0.72302118     0.30050
H538        H  0.18217001  0.68100445  0.80401304     0.30040
H539        H  0.20688817  0.59294373  0.79986443     0.20630
H540        H  0.29065114  0.65017962  0.71348187     0.20640
C541        C  0.24934898  0.81338991  0.73530886    -0.05190
C542        C  0.25146726  0.81579152  0.78076954    -0.16320
C543        C  0.25067562  0.87308663  0.80415412     0.12010
C544        C  0.24914097  0.93266599  0.78196345    -0.05120
C545        C  0.24706703  0.93028667  0.73651705    -0.16350
C546        C  0.24783617  0.87297663  0.71313542     0.12040
S547        S  0.25134273  0.86756213  0.86301300    -0.31320
S548        S  0.24700652  0.87870391  0.65435191    -0.31320
H549        H  0.25266036  0.94351156  0.65110764     0.30050
H550        H  0.24654755  0.80242263  0.86633601     0.30040
H551        H  0.25383005  0.77230569  0.79853108     0.20630
H552        H  0.24473398  0.97379333  0.71876789     0.20640
C553        C  0.25076412  0.68340385  0.28332958    -0.05190
C554        C  0.24772025  0.68134089  0.23796359    -0.16320
C555        C  0.24747851  0.62420845  0.21448236     0.12010
C556        C  0.24904142  0.56460373  0.23659787    -0.05120
C557        C  0.25192706  0.56665153  0.28199652    -0.16350
C558        C  0.25206327  0.62384720  0.30547353     0.12040
S559        S  0.24610492  0.62994440  0.15560728    -0.31320
S560        S  0.25338079  0.61821515  0.36427878    -0.31320
H561        H  0.25002536  0.55266031  0.36782864     0.30050
H562        H  0.24789196  0.69580629  0.15204304     0.30040
H563        H  0.24584662  0.72509932  0.22039393     0.20630
H564        H  0.25388373  0.52289083  0.29956644     0.20640
C565        C  0.24980450  0.93718247  0.23979088    -0.05190
C566        C  0.27423526  0.89688304  0.23977599    -0.16320
C567        C  0.27466157  0.83543869  0.25749842     0.12010
C568        C  0.25032925  0.81099479  0.27964317    -0.05120
C569        C  0.22610820  0.85198170  0.28039788    -0.16350
C570        C  0.22548257  0.91283849  0.26185311     0.12040
S571        S  0.30833330  0.79389386  0.25144158    -0.31320
S572        S  0.19163859  0.95395547  0.26710906    -0.31320
H573        H  0.20206457  0.51533361  0.26843991     0.30050
H574        H  0.29771200  0.73265268  0.25047375     0.30040
H575        H  0.29388044  0.91248058  0.22513055     0.20630
H576        H  0.20671754  0.83786277  0.29625954     0.20640
C577        C  0.99936367  0.68702557  0.23517590    -0.05190
C578        C  0.99940071  0.68507482  0.28068167    -0.16320
C579        C  0.00076598  0.62784147  0.30395702     0.12010
C580        C  0.00140791  0.56815365  0.28160347    -0.05120
C581        C  0.50133651  0.57020815  0.23610323    -0.16350
C582        C  0.49954028  0.62732852  0.21287562     0.12040
S583        S  0.00167063  0.63349094  0.36284163    -0.31320
S584        S  0.49757604  0.62147543  0.15405264    -0.31320
H585        H  0.49220420  0.55648669  0.15107923     0.30050
H586        H  0.00543250  0.69898129  0.36630213     0.30040
H587        H  0.99835984  0.72883371  0.29848423     0.20630
H588        H  0.50258372  0.52659733  0.21816656     0.20640
C589        C  0.49980819  0.81494558  0.23783670    -0.05190
C590        C  0.47636513  0.85822526  0.23614491    -0.16320
C591        C  0.47717162  0.91949178  0.25441012     0.12010
C592        C  0.50169070  0.94047367  0.27804107    -0.05120
C593        C  0.02526506  0.89752104  0.27923559    -0.16350
C594        C  0.02434734  0.83598731  0.26135601     0.12040
S595        S  0.44623948  0.97018729  0.24642305    -0.31320
S596        S  0.05517474  0.78511605  0.26958551    -0.31320
H597        H  0.06999466  0.82308721  0.29969860     0.30050
H598        H  0.43100007  0.93170170  0.21712695     0.30040
H599        H  0.45667222  0.84478899  0.22019237     0.20630
H600        H  0.04511093  0.91141455  0.29455708     0.20640
C601        C  0.99895025  0.81661623  0.78195543    -0.05190
C602        C  0.99820336  0.81864858  0.73646897    -0.16320
C603        C  0.99912406  0.87580753  0.71323586     0.12010
C604        C  0.99962770  0.93550412  0.73558042    -0.05120
C605        C  0.50024876  0.93348643  0.78108220    -0.16350
C606        C  0.49931751  0.87628221  0.80431220     0.12040
S607        S  0.99990512  0.86991555  0.65437795    -0.31320
S608        S  0.49853104  0.88197759  0.86315526    -0.31320
H609        H  0.49339067  0.94714177  0.86635191     0.30050
H610        H  0.00564016  0.80497086  0.65132522     0.30040
H611        H  0.99695585  0.77499795  0.71857763     0.20630
H612        H  0.50152248  0.97714748  0.79896570     0.20640
C613        C  0.49903508  0.68881056  0.77877120    -0.05190
C614        C  0.47555151  0.64627161  0.78053813    -0.16320
C615        C  0.47599085  0.58501712  0.76222563     0.12010
C616        C  0.50010644  0.56334980  0.73849428    -0.05120
C617        C  0.02358792  0.60590754  0.73672232    -0.16350
C618        C  0.02309332  0.66727487  0.75487612     0.12040
S619        S  0.44504582  0.53537635  0.76998935    -0.31320
S620        S  0.05386724  0.71726380  0.74667048    -0.31320
H621        H  0.06804019  0.67930624  0.71608749     0.30050
H622        H  0.43073612  0.57345608  0.80035375     0.30040
H623        H  0.45612907  0.66028906  0.79661430     0.20630
H624        H  0.04304197  0.59186332  0.72075530     0.20640
C625        C  0.49976756  0.50017351  0.71046745    -0.01550
C626        C  0.99940614  0.25184513  0.80692950    -0.01550
C627        C  0.99950864  0.25160273  0.20996624    -0.01550
C628        C  0.00175541  0.00330176  0.30653240    -0.01550
C629        C  0.75113085  0.24826085  0.30814356    -0.01550
C630        C  0.74917303  0.99985681  0.21141581    -0.01550
O631        O  0.97150940  0.95752802  0.36255818    -0.56880
C632        C  0.93156189  0.49591430  0.48362881     0.75750
O633        O  0.88633001  0.06159415  0.35841111    -0.58040
C634        C  0.97540009  0.00121985  0.33542974     0.75720
C635        C  0.88807093  0.40188740  0.36966464     0.78110
Cd636      Cd  0.92567159  0.00086128  0.39044580     1.37470
O637        O  0.94966221  0.52609019  0.46166767    -0.56880
O638        O  0.91367207  0.39063218  0.38140968    -0.55690
C639        C  0.88905159  0.10725109  0.38450721     0.78070
O640        O  0.88112134  0.45836580  0.36247344    -0.58060
O641        O  0.91284390  0.46569444  0.46253883    -0.56510
O642        O  0.95591801  0.04284915  0.33352189    -0.56500
O643        O  0.91058108  0.10669771  0.40990742    -0.55670
O644        O  0.78181610  0.29750417  0.36302026    -0.56880
C645        C  0.81371550  0.25798365  0.48494018     0.75750
O646        O  0.87060706  0.20160712  0.41387290    -0.58130
C647        C  0.77794899  0.25224277  0.33685036     0.75720
C648        C  0.86671692  0.35279968  0.37017448     0.78110
Cd649      Cd  0.82745858  0.25743872  0.39372436     1.37470
O650        O  0.81226257  0.20805314  0.46259420    -0.56880
O651        O  0.84025812  0.36522194  0.37228275    -0.55690
C652        C  0.86771158  0.15734032  0.38672002     0.78070
O653        O  0.87413827  0.29616983  0.37386117    -0.58060
O654        O  0.81847635  0.30825896  0.46451160    -0.56510
O655        O  0.79757618  0.21086727  0.33616009    -0.56500
O656        O  0.84533933  0.15775878  0.36289560    -0.55670
O657        O  0.94992635  0.02214127  0.55466068    -0.56880
C658        C  0.97314014  0.50258417  0.68124991     0.75750
O659        O  0.87794423  0.04855387  0.64812199    -0.58040
C660        C  0.93061578  0.99782718  0.53113799     0.75720
C661        C  0.88714189  0.40114474  0.63737130     0.78110
Cd662      Cd  0.92325200  0.50437254  0.62460901     1.37470
O663        O  0.96861293  0.54731217  0.65506125    -0.56880
O664        O  0.91063244  0.39491065  0.61719910    -0.55690
C665        C  0.88443232  0.10454029  0.64006199     0.78070
O666        O  0.88262259  0.45253891  0.65708168    -0.58060
O667        O  0.95406737  0.46040336  0.68187693    -0.56510
O668        O  0.90923469  0.97653326  0.55060704    -0.56500
O669        O  0.90973672  0.11520942  0.62796663    -0.55670
O670        O  0.77383999  0.24413880  0.64015533    -0.56880
C671        C  0.81320799  0.25689800  0.53253024     0.75750
O672        O  0.87040692  0.30249861  0.61428575    -0.58040
C673        C  0.77570278  0.25132944  0.68089935     0.75720
C674        C  0.86313869  0.15397789  0.64091363     0.78110
Cd675      Cd  0.82482485  0.25433510  0.62444016     1.37470
O676        O  0.81528181  0.20566277  0.55318455    -0.56880
O677        O  0.83666748  0.14282902  0.63621783    -0.55690
C678        C  0.86540552  0.35240690  0.63509613     0.78070
O679        O  0.87075529  0.21048952  0.64261860    -0.58060
O680        O  0.81351768  0.30709593  0.55480934    -0.56510
O681        O  0.80061662  0.26174327  0.69589381    -0.56500
O682        O  0.84059981  0.35894494  0.65123784    -0.55670
O683        O  0.97258528  0.21653870  0.86989687    -0.56880
C684        C  0.93409664  0.25682345  0.98507433     0.75750
O685        O  0.87583600  0.28935994  0.88654071    -0.58040
C686        C  0.97365246  0.25169892  0.83689783     0.75720
C687        C  0.88829394  0.14318167  0.88002159     0.78110
Cd688      Cd  0.92425819  0.24854799  0.89268147     1.37460
O689        O  0.93951448  0.20707062  0.96420486    -0.56880
O690        O  0.90806105  0.14437240  0.90824126    -0.55690
C691        C  0.88330422  0.34590617  0.88132118     0.78070
O692        O  0.88734673  0.18763427  0.85280759    -0.58060
O693        O  0.92712910  0.30471489  0.96293220    -0.56510
O694        O  0.95151273  0.28442386  0.82924656    -0.56500
O695        O  0.90991299  0.35744339  0.88016930    -0.55670
O696        O  0.81067431  0.04874369  0.96340346    -0.56880
C697        C  0.77578133  0.50035685  0.83613330     0.75750
O698        O  0.86769677  0.05461473  0.91204828    -0.58040
C699        C  0.81214804  0.99838769  0.98520023     0.75720
C700        C  0.86218016  0.39628783  0.88005898     0.78110
Cd701      Cd  0.82489553  0.49944013  0.89371981     1.37470
O702        O  0.77927078  0.54296343  0.86453450    -0.56880
O703        O  0.83666356  0.38750804  0.89217307    -0.55690
C704        C  0.86660328  0.09458745  0.88188246     0.78070
O705        O  0.86917863  0.45152421  0.86967219    -0.58060
O706        O  0.79573048  0.45997708  0.83350903    -0.56510
O707        O  0.81619587  0.94813540  0.96409226    -0.56500
O708        O  0.84540221  0.09203141  0.85591310    -0.55670
O709        O  0.93832022  0.20889100  0.05518344    -0.56880
C710        C  0.97320399  0.25243823  0.18018868     0.75750
O711        O  0.88217517  0.30786103  0.16088283    -0.58040
C712        C  0.93334576  0.25759756  0.03260966     0.75720
C713        C  0.88158312  0.16030141  0.13226779     0.78110
Cd714      Cd  0.92289083  0.25770540  0.12480102     1.37460
O715        O  0.97169539  0.28746818  0.14706932    -0.56880
O716        O  0.90723872  0.15175750  0.14489914    -0.55690
C717        C  0.88778367  0.36154239  0.14582852     0.78070
O718        O  0.87538800  0.21299900  0.11567233    -0.58060
O719        O  0.95104827  0.22068018  0.18819176    -0.56510
O720        O  0.92546127  0.30622033  0.05284254    -0.56500
O721        O  0.91187845  0.36876945  0.12827484    -0.55670
O722        O  0.77793428  0.96349456  0.15019713    -0.56880
C723        C  0.81230595  0.49890403  0.03282199     0.75750
O724        O  0.86619466  0.05874221  0.15281935    -0.58040
C725        C  0.77524739  0.00129952  0.18172792     0.75720
C726        C  0.86627319  0.41099463  0.14337744     0.78110
Cd727      Cd  0.82412492  0.00470602  0.12504212     1.37460
O728        O  0.80875523  0.54914490  0.05417782    -0.56880
O729        O  0.84087368  0.40350108  0.15638182    -0.55690
C730        C  0.86037198  0.11046322  0.13449334     0.78070
O731        O  0.87173082  0.46140315  0.12373668    -0.58060
O732        O  0.81866063  0.45014659  0.05442798    -0.56510
O733        O  0.79562688  0.03974680  0.18734997    -0.56500
O734        O  0.83600279  0.11588818  0.11629172    -0.55670
O735        O  0.70218629  0.96024162  0.83128749    -0.56880
C736        C  0.68670741  0.49407057  0.98523116     0.75750
O737        O  0.62924158  0.04397949  0.86687442    -0.58040
C738        C  0.72317252  0.99694391  0.83709824     0.75720
C739        C  0.63177094  0.40488012  0.88346152     0.78110
Cd740      Cd  0.67398171  0.99947465  0.89343892     1.37470
O741        O  0.68363828  0.54558346  0.96534557    -0.56880
O742        O  0.65531986  0.40050071  0.86333679    -0.55690
C743        C  0.63646128  0.10024156  0.87273092     0.78070
O744        O  0.62844526  0.45161948  0.90840319    -0.58060
O745        O  0.68684370  0.44459576  0.96222747    -0.56510
O746        O  0.72110922  0.03452080  0.86884569    -0.56500
O747        O  0.66236464  0.11074460  0.88244186    -0.55670
O748        O  0.54810668  0.23991857  0.96128077    -0.56880
C749        C  0.52626344  0.24991694  0.83565818     0.75750
O750        O  0.61330918  0.30858169  0.85648234    -0.58040
C751        C  0.56980499  0.25017707  0.98507785     0.75720
C752        C  0.61520769  0.14990749  0.87344207     0.78110
Cd753      Cd  0.57621270  0.24896558  0.89156478     1.37460
O754        O  0.53113367  0.20511468  0.86174549    -0.56880
O755        O  0.58902450  0.13835805  0.87963707    -0.55690
C756        C  0.60997719  0.35631430  0.88062211     0.78070
O757        O  0.62255823  0.20663771  0.87230694    -0.58060
O758        O  0.54507767  0.29270727  0.83484260    -0.56510
O759        O  0.59308390  0.25851802  0.96585970    -0.56500
O760        O  0.58795802  0.35830223  0.90447842    -0.55670
O761        O  0.71942177  0.45184463  0.15483949    -0.56880
C762        C  0.68673929  0.99196261  0.03280394     0.75750
O763        O  0.62774468  0.45130469  0.14740550    -0.58040
C764        C  0.72272733  0.49612612  0.18194615     0.75720
C765        C  0.63247327  0.08985498  0.13099816     0.78110
Cd766      Cd  0.67353356  0.49102306  0.12417741     1.37470
O767        O  0.68815460  0.04155355  0.05553197    -0.56880
O768        O  0.65538263  0.09121908  0.15358188    -0.55690
C769        C  0.63505529  0.39433774  0.14684085     0.78070
O770        O  0.62925467  0.04416460  0.10506803    -0.58060
O771        O  0.68238295  0.94123995  0.05289785    -0.56510
O772        O  0.70273454  0.53658839  0.18301385    -0.56500
O773        O  0.66127398  0.38190569  0.14135232    -0.55670
O774        O  0.54958840  0.22746776  0.05485623    -0.56880
C775        C  0.52594784  0.25184710  0.18111707     0.75750
O776        O  0.61410217  0.18624356  0.15845347    -0.58040
C777        C  0.56921562  0.25197195  0.03256924     0.75720
C778        C  0.61366554  0.34543464  0.14654222     0.78110
Cd779      Cd  0.57540362  0.24772599  0.12573265     1.37470
O780        O  0.53036471  0.29488962  0.15370254    -0.56880
O781        O  0.58785048  0.35754732  0.13647801    -0.55690
C782        C  0.61104993  0.13987603  0.13305970     0.78070
O783        O  0.62070957  0.28854606  0.15141170    -0.58060
O784        O  0.54487037  0.20892567  0.18317465    -0.56510
O785        O  0.58967198  0.27674724  0.05330657    -0.56500
O786        O  0.58928566  0.13998051  0.10808312    -0.55670
O787        O  0.68574800  0.29431960  0.55441775    -0.56880
C788        C  0.72270976  0.24436618  0.68166181     0.75750
O789        O  0.62712946  0.28872398  0.63578374    -0.58040
C790        C  0.68817636  0.24382572  0.53297796     0.75720
C791        C  0.63193467  0.15102119  0.63947705     0.78110
Cd792      Cd  0.67393942  0.24390197  0.62376711     1.37470
O793        O  0.71916107  0.20038682  0.65424355    -0.56880
O794        O  0.65412007  0.15224208  0.66361401    -0.55690
C795        C  0.63519885  0.34510697  0.63713644     0.78070
O796        O  0.63023928  0.19089247  0.60933916    -0.58060
O797        O  0.70276120  0.28488469  0.68367168    -0.56510
O798        O  0.68735805  0.19306971  0.55427203    -0.56500
O799        O  0.66188971  0.35541717  0.63539304    -0.55670
O800        O  0.55110718  0.47214871  0.55556295    -0.56880
C801        C  0.52590334  0.99924018  0.68112204     0.75750
O802        O  0.62156533  0.45132528  0.64665446    -0.58040
C803        C  0.57124807  0.49482021  0.53335239     0.75720
C804        C  0.60989962  0.10348297  0.64269912     0.78110
Cd805      Cd  0.57583443  0.99776757  0.62681282     1.37460
O806        O  0.52817444  0.03607455  0.64905051    -0.56880
O807        O  0.58816728  0.10589680  0.61781576    -0.55690
C808        C  0.61428965  0.39577171  0.63753868     0.78070
O809        O  0.61282306  0.05575125  0.66681204    -0.58060
O810        O  0.54709160  0.96318682  0.68831404    -0.56510
O811        O  0.59199668  0.51794749  0.55419127    -0.56500
O812        O  0.58843786  0.38648578  0.62636983    -0.55670
O813        O  0.55104993  0.97726060  0.46208957    -0.56880
C814        C  0.52800691  0.50252142  0.33653311     0.75750
O815        O  0.61754646  0.04984332  0.35996536    -0.58040
C816        C  0.57179751  0.99443400  0.48585078     0.75720
C817        C  0.61591611  0.39375722  0.37470311     0.78110
Cd818      Cd  0.57805894  0.49502074  0.39232512     1.37460
O819        O  0.53093572  0.46138325  0.36587558    -0.56880
O820        O  0.59043307  0.38336894  0.38609337    -0.55690
C821        C  0.61399707  0.09861370  0.38298634     0.78070
O822        O  0.62266948  0.44975630  0.36724856    -0.58060
O823        O  0.54852354  0.54084004  0.33289717    -0.56510
O824        O  0.59402276  0.01164778  0.46656672    -0.56500
O825        O  0.59136526  0.10267010  0.40547949    -0.55670
O826        O  0.68471630  0.29501884  0.46461056    -0.56880
C827        C  0.72512927  0.24620474  0.33785289     0.75750
O828        O  0.63194136  0.19426329  0.40962846    -0.58040
C829        C  0.68843652  0.24429095  0.48541218     0.75720
C830        C  0.63726631  0.34428642  0.37473246     0.78110
Cd831      Cd  0.67600866  0.24525735  0.39396638     1.37460
O832        O  0.72690168  0.25753273  0.37816359    -0.56880
O833        O  0.66369569  0.35582798  0.37951085    -0.55690
C834        C  0.63580609  0.14692496  0.38562014     0.78070
O835        O  0.62979001  0.28764530  0.37425421    -0.58060
O836        O  0.70041100  0.23229195  0.32351705    -0.56510
O837        O  0.68944042  0.19390210  0.46336966    -0.56500
O838        O  0.65954419  0.14260459  0.36595601    -0.55670
C839        C  0.74956597  0.24847359  0.71029258    -0.01550
C840        C  0.74908174  0.99758726  0.80714638    -0.01550
C841        C  0.74871638  0.06052653  0.77906378    -0.05190
C842        C  0.72594429  0.10509495  0.78241883    -0.16320
C843        C  0.72670133  0.16619408  0.76406816     0.12010
C844        C  0.75022520  0.18542297  0.73824485    -0.05120
C845        C  0.77256661  0.13998897  0.73361331    -0.16350
C846        C  0.77224980  0.07966307  0.75328403     0.12040
S847        S  0.69657921  0.21836961  0.77370265    -0.31320
S848        S  0.80234175  0.02735500  0.74390353    -0.31320
H849        H  0.82026347  0.07052359  0.72299232     0.30050
H850        H  0.68216845  0.18098586  0.80402351     0.30040
H851        H  0.70689014  0.09292947  0.79986778     0.20630
H852        H  0.79064475  0.15019204  0.71347585     0.20640
C853        C  0.74933488  0.31339152  0.73531022    -0.05190
C854        C  0.75145285  0.31579235  0.78077087    -0.16320
C855        C  0.75066105  0.37308704  0.80415573     0.12010
C856        C  0.74912886  0.43266683  0.78196523    -0.05120
C857        C  0.74705488  0.43028846  0.73651892    -0.16350
C858        C  0.74782178  0.37297860  0.71313708     0.12040
S859        S  0.75132517  0.36756147  0.86301464    -0.31320
S860        S  0.74698920  0.37870686  0.65435364    -0.31320
H861        H  0.75264514  0.44351355  0.65110901     0.30050
H862        H  0.74653003  0.30242184  0.86633662     0.30040
H863        H  0.75381536  0.27230631  0.79853221     0.20630
H864        H  0.74472316  0.47379580  0.71877014     0.20640
C865        C  0.75076025  0.18340008  0.28332672    -0.05190
C866        C  0.74771636  0.18133961  0.23796054    -0.16320
C867        C  0.74747740  0.12420870  0.21447705     0.12010
C868        C  0.74904369  0.06460233  0.23659009    -0.05120
C869        C  0.75192929  0.06664798  0.28198908    -0.16350
C870        C  0.75206201  0.12384208  0.30546830     0.12040
S871        S  0.74610225  0.12994918  0.15560229    -0.31320
S872        S  0.75337839  0.11820661  0.36427338    -0.31320
H873        H  0.75002706  0.05265041  0.36782088     0.30050
H874        H  0.74789222  0.19581097  0.15204063     0.30040
H875        H  0.74584029  0.22509903  0.22039253     0.20630
H876        H  0.75388831  0.02288672  0.29955775     0.20640
C877        C  0.74979909  0.43718280  0.23980005    -0.05190
C878        C  0.77422950  0.39688223  0.23978256    -0.16320
C879        C  0.77465546  0.33543629  0.25750159     0.12010
C880        C  0.75032297  0.31099114  0.27964515    -0.05120
C881        C  0.72610223  0.35197909  0.28040252    -0.16350
C882        C  0.72547718  0.41283818  0.26186147     0.12040
S883        S  0.80832732  0.29389224  0.25144277    -0.31320
S884        S  0.69163424  0.45395806  0.26712108    -0.31320
H885        H  0.70206765  0.01533242  0.26843044     0.30050
H886        H  0.79770682  0.23265060  0.25047374     0.30040
H887        H  0.79387473  0.41247987  0.22513732     0.20630
H888        H  0.70671155  0.33785961  0.29626384     0.20640
C889        C  0.49936846  0.18702209  0.23517260    -0.05190
C890        C  0.49940294  0.18507680  0.28067829    -0.16320
C891        C  0.50076453  0.12784622  0.30395623     0.12010
C892        C  0.50140407  0.06815676  0.28160511    -0.05120
C893        C  0.00133526  0.07020553  0.23610488    -0.16350
C894        C  0.99954389  0.12732340  0.21287458     0.12040
S895        S  0.50166878  0.13350124  0.36284065    -0.31320
S896        S  0.99758329  0.12146516  0.15405161    -0.31320
H897        H  0.99220873  0.05647737  0.15108011     0.30050
H898        H  0.50543295  0.19899123  0.36629835     0.30040
H899        H  0.49836282  0.22883757  0.29847871     0.20630
H900        H  0.00258120  0.02659253  0.21817053     0.20640
C901        C  0.99981399  0.31494099  0.23782801    -0.05190
C902        C  0.97637169  0.35822259  0.23613344    -0.16320
C903        C  0.97717758  0.41948793  0.25440157     0.12010
C904        C  0.00169678  0.44046932  0.27803295    -0.05120
C905        C  0.52527127  0.39751728  0.27922557    -0.16350
C906        C  0.52435280  0.33598245  0.26134824     0.12040
S907        S  0.94624552  0.47018459  0.24641587    -0.31320
S908        S  0.55517923  0.28510972  0.26958169    -0.31320
H909        H  0.56999564  0.32307646  0.29970147     0.30050
H910        H  0.93098914  0.43167087  0.21715821     0.30040
H911        H  0.95668016  0.34478846  0.22017630     0.20630
H912        H  0.54511795  0.41141158  0.29454423     0.20640
C913        C  0.49895163  0.31661327  0.78196126    -0.05190
C914        C  0.49820838  0.31864450  0.73647472    -0.16320
C915        C  0.49913326  0.37580194  0.71324078     0.12010
C916        C  0.49963562  0.43549966  0.73558422    -0.05120
C917        C  0.00024967  0.43348318  0.78108659    -0.16350
C918        C  0.99931554  0.37627895  0.80431725     0.12040
S919        S  0.49991972  0.36990518  0.65438315    -0.31320
S920        S  0.99852107  0.38197234  0.86315960    -0.31320
H921        H  0.99339033  0.44714002  0.86635635     0.30050
H922        H  0.50566121  0.30496272  0.65133472     0.30040
H923        H  0.49696134  0.27499376  0.71858354     0.20630
H924        H  0.00151962  0.47714519  0.79896962     0.20640
C925        C  0.99903698  0.18880693  0.77877876    -0.05190
C926        C  0.97555533  0.14626387  0.78055755    -0.16320
C927        C  0.97599068  0.08501458  0.76223746     0.12010
C928        C  0.00010142  0.06335310  0.73849304    -0.05120
C929        C  0.52358208  0.10591231  0.73671265    -0.16350
C930        C  0.52309119  0.16727555  0.75487272     0.12040
S931        S  0.94504662  0.03537279  0.77000763    -0.31320
S932        S  0.55386578  0.21726212  0.74666434    -0.31320
H933        H  0.56803604  0.17930704  0.71607706     0.30050
H934        H  0.93073898  0.07345039  0.80037544     0.30040
H935        H  0.95613769  0.16027255  0.79664996     0.20630
H936        H  0.54303256  0.09187271  0.72073397     0.20640
C937        C  0.49975799  0.00017903  0.71046532    -0.01550
C938        C  0.99940172  0.75184782  0.80692390    -0.01550
C939        C  0.99950294  0.75161009  0.20997200    -0.01550
C940        C  0.00176143  0.50329453  0.30652816    -0.01550
C941        C  0.75113706  0.74826607  0.30814391    -0.01550
C942        C  0.74916782  0.49985752  0.21142594    -0.01550
O943        O  0.97151585  0.45751630  0.36255361    -0.56880
C944        C  0.93154953  0.99595390  0.48363703     0.75750
O945        O  0.88634079  0.56159859  0.35839551    -0.58040
C946        C  0.97540598  0.50120851  0.33542544     0.75720
C947        C  0.88807890  0.90188099  0.36967676     0.78110
Cd948      Cd  0.92567506  0.50084639  0.39043942     1.37470
O949        O  0.94967037  0.02606908  0.46167517    -0.56880
O950        O  0.91367553  0.89064069  0.38145181    -0.55690
C951        C  0.88905386  0.60723835  0.38450815     0.78070
O952        O  0.88113061  0.95835131  0.36245164    -0.58060
O953        O  0.91281462  0.96578410  0.46254773    -0.56510
O954        O  0.95592267  0.54283500  0.33351711    -0.56500
O955        O  0.91057556  0.60666830  0.40992341    -0.55670
O956        O  0.78182420  0.79750788  0.36301849    -0.56880
C957        C  0.81370854  0.75797919  0.48493932     0.75750
O958        O  0.87060016  0.70157274  0.41389317    -0.58130
C959        C  0.77795576  0.75224574  0.33684954     0.75720
C960        C  0.86672688  0.85278924  0.37018822     0.78110
Cd961      Cd  0.82746278  0.75743222  0.39372769     1.37470
O962        O  0.81225494  0.70804930  0.46259268    -0.56880
O963        O  0.84026594  0.86520529  0.37225869    -0.55690
C964        C  0.86771338  0.65732730  0.38672173     0.78070
O965        O  0.87415005  0.79616606  0.37391303    -0.58060
O966        O  0.81847350  0.80825377  0.46451197    -0.56510
O967        O  0.79758122  0.71086579  0.33616100    -0.56500
O968        O  0.84534964  0.65776749  0.36287883    -0.55670
O969        O  0.94992301  0.52217573  0.55464675    -0.56880
C970        C  0.97312773  0.00259495  0.68125323     0.75750
O971        O  0.87801046  0.54860849  0.64831471    -0.58040
C972        C  0.93063055  0.49778008  0.53113013     0.75720
C973        C  0.88715297  0.90113608  0.63742720     0.78110
Cd974      Cd  0.92323730  0.00439062  0.62461972     1.37470
O975        O  0.96860037  0.04732432  0.65506468    -0.56880
O976        O  0.91063189  0.89492549  0.61722108    -0.55690
C977        C  0.88446236  0.60454832  0.64003265     0.78070
O978        O  0.88264399  0.95250979  0.65716863    -0.58060
O979        O  0.95405290  0.96041765  0.68188557    -0.56510
O980        O  0.90926815  0.47640460  0.55060496    -0.56500
O981        O  0.90972818  0.61516334  0.62773732    -0.55670
O982        O  0.77385284  0.74412484  0.64015479    -0.56880
C983        C  0.81320069  0.75689257  0.53252950     0.75750
O984        O  0.87041384  0.80251311  0.61431139    -0.58040
C985        C  0.77571622  0.75131964  0.68089888     0.75720
C986        C  0.86316997  0.65398861  0.64087739     0.78110
Cd987      Cd  0.82483583  0.75432926  0.62443414     1.37470
O988        O  0.81527210  0.70565661  0.55318362    -0.56880
O989        O  0.83668542  0.64283356  0.63637883    -0.55690
C990        C  0.86541528  0.85240059  0.63514505     0.78070
O991        O  0.87079703  0.71050107  0.64237790    -0.58060
O992        O  0.81351588  0.80709025  0.55480854    -0.56510
O993        O  0.80063086  0.76173284  0.69589279    -0.56500
O994        O  0.84061035  0.85892326  0.65129284    -0.55670
O995        O  0.97255338  0.71645027  0.86983831    -0.56880
C996        C  0.93405911  0.75688298  0.98504761     0.75750
O997        O  0.87582713  0.78935020  0.88630317    -0.58040
C998        C  0.97364549  0.75170107  0.83688785     0.75720
C999        C  0.88828424  0.64315821  0.88006244     0.78110
Cd1000     Cd  0.92424288  0.74854716  0.89265359     1.37460
O1001       O  0.93964876  0.70723211  0.96416586    -0.56880
O1002       O  0.90798776  0.64447992  0.90838012    -0.55690
C1003       C  0.88330615  0.84592049  0.88123382     0.78070
O1004       O  0.88739836  0.68748245  0.85274506    -0.58060
O1005       O  0.92693264  0.80467434  0.96291724    -0.56510
O1006       O  0.95152889  0.78452336  0.82928251    -0.56500
O1007       O  0.90991816  0.85746668  0.88022875    -0.55670
O1008       O  0.81067106  0.54876816  0.96338807    -0.56880
C1009       C  0.77579183  0.00036528  0.83612903     0.75750
O1010       O  0.86764325  0.55468487  0.91214318    -0.58040
C1011       C  0.81213155  0.49841292  0.98518830     0.75720
C1012       C  0.86218669  0.89631277  0.87999085     0.78110
Cd1013     Cd  0.82490547  0.99945719  0.89371943     1.37470
O1014       O  0.77927991  0.04297384  0.86452932    -0.56880
O1015       O  0.83665625  0.88751115  0.89203365    -0.55690
C1016       C  0.86659541  0.59456191  0.88191421     0.78070
O1017       O  0.86920391  0.95157832  0.86970838    -0.58060
O1018       O  0.79574339  0.95999142  0.83350384    -0.56510
O1019       O  0.81616305  0.44814875  0.96408571    -0.56500
O1020       O  0.84543966  0.59191095  0.85586485    -0.55670
O1021       O  0.93841248  0.70900044  0.05516245    -0.56880
C1022       C  0.97319826  0.75245077  0.18019388     0.75750
O1023       O  0.88223773  0.80794332  0.16095612    -0.58040
C1024       C  0.93330418  0.75763696  0.03258238     0.75720
C1025       C  0.88158264  0.66027404  0.13227273     0.78110
Cd1026     Cd  0.92289194  0.75768751  0.12478926     1.37460
O1027       O  0.97168756  0.78749442  0.14708111    -0.56880
O1028       O  0.90728530  0.65160461  0.14463200    -0.55690
C1029       C  0.88782847  0.86158234  0.14580857     0.78070
O1030       O  0.87533218  0.71311661  0.11594911    -0.58060
O1031       O  0.95104490  0.72068098  0.18818931    -0.56510
O1032       O  0.92529004  0.80615883  0.05281003    -0.56500
O1033       O  0.91189928  0.86875597  0.12816785    -0.55670
O1034       O  0.77791927  0.46350723  0.15019695    -0.56880
C1035       C  0.81231855  0.99887266  0.03283552     0.75750
O1036       O  0.86625436  0.55859746  0.15263163    -0.58040
C1037       C  0.77524127  0.50129609  0.18173790     0.75720
C1038       C  0.86631677  0.91103361  0.14335476     0.78110
Cd1039     Cd  0.82410560  0.50470332  0.12503194     1.37460
O1040       O  0.80875030  0.04910858  0.05419137    -0.56880
O1041       O  0.84093981  0.90359394  0.15647078    -0.55690
C1042       C  0.86037547  0.61042713  0.13449533     0.78070
O1043       O  0.87174310  0.96137126  0.12360625    -0.58060
O1044       O  0.81868728  0.95012265  0.05444260    -0.56510
O1045       O  0.79562819  0.53972238  0.18736892    -0.56500
O1046       O  0.83595162  0.61595684  0.11647718    -0.55670
O1047       O  0.70217497  0.46025318  0.83128685    -0.56880
C1048       C  0.68671942  0.99404892  0.98522914     0.75750
O1049       O  0.62922228  0.54397749  0.86689857    -0.58040
C1050       C  0.72316209  0.49695290  0.83709753     0.75720
C1051       C  0.63177307  0.90488078  0.88348001     0.78110
Cd1052     Cd  0.67397123  0.49948816  0.89343763     1.37470
O1053       O  0.68365065  0.04556297  0.96534490    -0.56880
O1054       O  0.65531571  0.90050241  0.86333847    -0.55690
C1055       C  0.63644437  0.60024446  0.87272230     0.78070
O1056       O  0.62845708  0.95161275  0.90843132    -0.58060
O1057       O  0.68685588  0.94457460  0.96222472    -0.56510
O1058       O  0.72109903  0.53453289  0.86884346    -0.56500
O1059       O  0.66235147  0.61075507  0.88240619    -0.55670
O1060       O  0.54808503  0.74010459  0.96128132    -0.56880
C1061       C  0.52625594  0.74991783  0.83565872     0.75750
O1062       O  0.61329611  0.80860596  0.85648649    -0.58040
C1063       C  0.56980375  0.75015794  0.98507888     0.75720
C1064       C  0.61519016  0.64990990  0.87343032     0.78110
Cd1065     Cd  0.57620382  0.74897338  0.89156716     1.37460
O1066       O  0.53112132  0.70512151  0.86175351    -0.56880
O1067       O  0.58900998  0.63836254  0.87965821    -0.55690
C1068       C  0.60997590  0.85632178  0.88064478     0.78070
O1069       O  0.62253892  0.70664025  0.87226055    -0.58060
O1070       O  0.54507354  0.79270074  0.83483874    -0.56510
O1071       O  0.59309844  0.75829880  0.96586127    -0.56500
O1072       O  0.58796522  0.85829824  0.90451867    -0.55670
O1073       O  0.71942960  0.95184059  0.15482811    -0.56880
C1074       C  0.68672867  0.49198425  0.03280650     0.75750
O1075       O  0.62774098  0.95131573  0.14737129    -0.58040
C1076       C  0.72273328  0.99612168  0.18193574     0.75720
C1077       C  0.63246056  0.58985205  0.13101021     0.78110
Cd1078     Cd  0.67353898  0.99101283  0.12417093     1.37470
O1079       O  0.68814375  0.54157404  0.05553586    -0.56880
O1080       O  0.65537533  0.59123100  0.15358063    -0.55690
C1081       C  0.63504961  0.89434750  0.14683675     0.78070
O1082       O  0.62923786  0.54414934  0.10509153    -0.58060
O1083       O  0.68237476  0.44126045  0.05290002    -0.56510
O1084       O  0.70273855  0.03657928  0.18300566    -0.56500
O1085       O  0.66127015  0.88190597  0.14137537    -0.55670
O1086       O  0.54956118  0.72757471  0.05486070    -0.56880
C1087       C  0.52594204  0.75185643  0.18112215     0.75750
O1088       O  0.61409452  0.68624934  0.15845678    -0.58040
C1089       C  0.56921743  0.75195968  0.03257022     0.75720
C1090       C  0.61365706  0.84545023  0.14654120     0.78110
Cd1091     Cd  0.57539808  0.74773357  0.12573663     1.37470
O1092       O  0.53036042  0.79490354  0.15371140    -0.56880
O1093       O  0.58784731  0.85756022  0.13644319    -0.55690
C1094       C  0.61103712  0.63987350  0.13307180     0.78070
O1095       O  0.62069480  0.78856517  0.15144910    -0.58060
O1096       O  0.54486312  0.70893130  0.18317531    -0.56510
O1097       O  0.58970288  0.77662411  0.05330416    -0.56500
O1098       O  0.58926902  0.63997254  0.10810254    -0.55670
O1099       O  0.68576583  0.79433038  0.55441745    -0.56880
C1100       C  0.72272220  0.74436891  0.68165983     0.75750
O1101       O  0.62714380  0.78873672  0.63577623    -0.58040
C1102       C  0.68819595  0.74383548  0.53297911     0.75720
C1103       C  0.63194227  0.65104464  0.63945872     0.78110
Cd1104     Cd  0.67395294  0.74391574  0.62376305     1.37470
O1105       O  0.71917168  0.70038913  0.65424235    -0.56880
O1106       O  0.65411457  0.65228966  0.66362301    -0.55690
C1107       C  0.63521117  0.84512141  0.63711673     0.78070
O1108       O  0.63026380  0.69088374  0.60929870    -0.58060
O1109       O  0.70277546  0.78489208  0.68366828    -0.56510
O1110       O  0.68737836  0.69307970  0.55427374    -0.56500
O1111       O  0.66190155  0.85543554  0.63537045    -0.55670
O1112       O  0.55116667  0.97184369  0.55556274    -0.56880
C1113       C  0.52591441  0.49923938  0.68112585     0.75750
O1114       O  0.62157135  0.95134005  0.64661704    -0.58040
C1115       C  0.57122791  0.99485565  0.53335329     0.75720
C1116       C  0.60990372  0.60351457  0.64267943     0.78110
Cd1117     Cd  0.57584432  0.49778281  0.62681443     1.37460
O1118       O  0.52819208  0.53610371  0.64907136    -0.56880
O1119       O  0.58818659  0.60589821  0.61776493    -0.55690
C1120       C  0.61429946  0.89578069  0.63751303     0.78070
O1121       O  0.61280952  0.55581781  0.66682853    -0.58060
O1122       O  0.54709576  0.46315761  0.68829944    -0.56510
O1123       O  0.59189917  0.01831170  0.55419272    -0.56500
O1124       O  0.58844722  0.88648134  0.62635508    -0.55670
O1125       O  0.55099009  0.47768892  0.46208328    -0.56880
C1126       C  0.52799984  0.00253188  0.33653702     0.75750
O1127       O  0.61752660  0.54991369  0.35994032    -0.58040
C1128       C  0.57181619  0.49439399  0.48584944     0.75720
C1129       C  0.61592815  0.89376269  0.37472801     0.78110
Cd1130     Cd  0.57805347  0.99501002  0.39232610     1.37460
O1131       O  0.53092275  0.96141152  0.36589035    -0.56880
O1132       O  0.59044556  0.88336624  0.38611263    -0.55690
C1133       C  0.61399750  0.59864334  0.38300724     0.78070
O1134       O  0.62267855  0.94976444  0.36728066    -0.58060
O1135       O  0.54852185  0.04083264  0.33289056    -0.56510
O1136       O  0.59411567  0.51115549  0.46657017    -0.56500
O1137       O  0.59138234  0.60266554  0.40553930    -0.55670
O1138       O  0.68473227  0.79502753  0.46461309    -0.56880
C1139       C  0.72513650  0.74621310  0.33785517     0.75750
O1140       O  0.63196160  0.69425864  0.40967957    -0.58040
C1141       C  0.68845544  0.74429976  0.48541383     0.75720
C1142       C  0.63727903  0.84429596  0.37475155     0.78110
Cd1143     Cd  0.67601946  0.74526668  0.39397370     1.37460
O1144       O  0.72691093  0.75753853  0.37816603    -0.56880
O1145       O  0.66370788  0.85583901  0.37953300    -0.55690
C1146       C  0.63581061  0.64694538  0.38564180     0.78070
O1147       O  0.62980335  0.78765469  0.37426213    -0.58060
O1148       O  0.70041757  0.73230142  0.32352156    -0.56510
O1149       O  0.68946014  0.69391047  0.46337145    -0.56500
O1150       O  0.65953739  0.64264064  0.36594516    -0.55670
C1151       C  0.74957828  0.74847119  0.71029181    -0.01550
C1152       C  0.74907255  0.49758801  0.80714808    -0.01550
C1153       C  0.74871313  0.56052720  0.77906528    -0.05190
C1154       C  0.72594396  0.60510293  0.78241758    -0.16320
C1155       C  0.72670613  0.66620155  0.76406689     0.12010
C1156       C  0.75023255  0.68542225  0.73824569    -0.05120
C1157       C  0.77257133  0.63998178  0.73361739    -0.16350
C1158       C  0.77224936  0.57965617  0.75328843     0.12040
S1159       S  0.69658725  0.71838732  0.77369888    -0.31320
S1160       S  0.80233803  0.52733823  0.74391091    -0.31320
H1161       H  0.82026876  0.57051067  0.72302125     0.30050
H1162       H  0.68216998  0.68100439  0.80401298     0.30040
H1163       H  0.70688814  0.59294368  0.79986443     0.20630
H1164       H  0.79065115  0.65017954  0.71348192     0.20640
C1165       C  0.74934899  0.81338983  0.73530889    -0.05190
C1166       C  0.75146724  0.81579143  0.78076958    -0.16320
C1167       C  0.75067556  0.87308652  0.80415417     0.12010
C1168       C  0.74914091  0.93266589  0.78196350    -0.05120
C1169       C  0.74706699  0.93028658  0.73651711    -0.16350
C1170       C  0.74783617  0.87297656  0.71313546     0.12040
S1171       S  0.75134265  0.86756200  0.86301304    -0.31320
S1172       S  0.74700656  0.87870386  0.65435195    -0.31320
H1173       H  0.75266037  0.94351152  0.65110770     0.30050
H1174       H  0.74654748  0.80242249  0.86633604     0.30040
H1175       H  0.75383004  0.77230559  0.79853111     0.20630
H1176       H  0.74473394  0.97379325  0.71876794     0.20640
C1177       C  0.75076417  0.68340382  0.28332960    -0.05190
C1178       C  0.74772010  0.68134090  0.23796364    -0.16320
C1179       C  0.74747828  0.62420849  0.21448238     0.12010
C1180       C  0.74904132  0.56460375  0.23659786    -0.05120
C1181       C  0.75192716  0.56665151  0.28199648    -0.16350
C1182       C  0.75206342  0.62384715  0.30547351     0.12040
S1183       S  0.74610448  0.62994447  0.15560730    -0.31320
S1184       S  0.75338117  0.61821503  0.36427876    -0.31320
H1185       H  0.75002580  0.55266017  0.36782861     0.30050
H1186       H  0.74789037  0.69580653  0.15204306     0.30040
H1187       H  0.74584642  0.72509936  0.22039402     0.20630
H1188       H  0.75388393  0.52289079  0.29956636     0.20640
C1189       C  0.74980446  0.93718248  0.23979099    -0.05190
C1190       C  0.77423518  0.89688292  0.23977586    -0.16320
C1191       C  0.77466151  0.83543857  0.25749828     0.12010
C1192       C  0.75032925  0.81099478  0.27964326    -0.05120
C1193       C  0.72610826  0.85198182  0.28039822    -0.16350
C1194       C  0.72548260  0.91283860  0.26185344     0.12040
S1195       S  0.80833319  0.79389363  0.25144117    -0.31320
S1196       S  0.69163865  0.95395565  0.26710964    -0.31320
H1197       H  0.70206461  0.51533386  0.26844011     0.30050
H1198       H  0.79771190  0.73265245  0.25047360     0.30040
H1199       H  0.79388031  0.91248035  0.22513022     0.20630
H1200       H  0.70671765  0.83786303  0.29626011     0.20640
C1201       C  0.49936361  0.68702563  0.23517600    -0.05190
C1202       C  0.49940070  0.68507483  0.28068177    -0.16320
C1203       C  0.50076600  0.62784146  0.30395709     0.12010
C1204       C  0.50140794  0.56815365  0.28160353    -0.05120
C1205       C  0.00133651  0.57020811  0.23610317    -0.16350
C1206       C  0.99954032  0.62732845  0.21287554     0.12040
S1207       S  0.50167067  0.63349088  0.36284171    -0.31320
S1208       S  0.99757610  0.62147532  0.15405256    -0.31320
H1209       H  0.99220421  0.55648661  0.15107918     0.30050
H1210       H  0.50543253  0.69898123  0.36630223     0.30040
H1211       H  0.49835982  0.72883371  0.29848434     0.20630
H1212       H  0.00258372  0.52659727  0.21816652     0.20640
C1213       C  0.99980826  0.81494550  0.23783658    -0.05190
C1214       C  0.97636520  0.85822522  0.23614473    -0.16320
C1215       C  0.97717166  0.91949170  0.25441001     0.12010
C1216       C  0.00169073  0.94047358  0.27804098    -0.05120
C1217       C  0.52526502  0.89752112  0.27923569    -0.16350
C1218       C  0.52434730  0.83598739  0.26135608     0.12040
S1219       S  0.94623952  0.97018721  0.24642297    -0.31320
S1220       S  0.55517470  0.78511614  0.26958550    -0.31320
H1221       H  0.56999477  0.82308748  0.29969833     0.30050
H1222       H  0.93099983  0.93170116  0.21712750     0.30040
H1223       H  0.95667232  0.84478898  0.22019207     0.20630
H1224       H  0.54511088  0.91141461  0.29455721     0.20640
C1225       C  0.49895023  0.81661640  0.78195535    -0.05190
C1226       C  0.49820333  0.81864875  0.73646889    -0.16320
C1227       C  0.49912405  0.87580769  0.71323579     0.12010
C1228       C  0.49962767  0.93550428  0.73558036    -0.05120
C1229       C  0.00024876  0.93348627  0.78108227    -0.16350
C1230       C  0.99931748  0.87628204  0.80431228     0.12040
S1231       S  0.49990514  0.86991572  0.65437789    -0.31320
S1232       S  0.99853089  0.88197738  0.86315532    -0.31320
H1233       H  0.99339055  0.94714158  0.86635196     0.30050
H1234       H  0.50564020  0.80497103  0.65132516     0.30040
H1235       H  0.49695581  0.77499812  0.71857755     0.20630
H1236       H  0.00152245  0.97714731  0.79896578     0.20640
C1237       C  0.99903515  0.68881037  0.77877133    -0.05190
C1238       C  0.97555163  0.64627131  0.78053842    -0.16320
C1239       C  0.97599095  0.58501689  0.76222581     0.12010
C1240       C  0.00010649  0.56334968  0.73849434    -0.05120
C1241       C  0.52358789  0.60590760  0.73672236    -0.16350
C1242       C  0.52309329  0.66727496  0.75487612     0.12040
S1243       S  0.94504593  0.53537607  0.76998955    -0.31320
S1244       S  0.55386723  0.71726383  0.74667055    -0.31320
H1245       H  0.56804023  0.67930618  0.71608766     0.30050
H1246       H  0.93073620  0.57345580  0.80035391     0.30040
H1247       H  0.95612925  0.66028860  0.79661482     0.20630
H1248       H  0.54304197  0.59186329  0.72075545     0.20640
loop_ 
_geom_bond_atom_site_label_1 
_geom_bond_atom_site_label_2 
_geom_bond_distance 
_geom_bond_site_symmetry_2 
_ccdc_geom_bond_type 
C1          C292   1.578       .  S
C1          C658   1.528       .  S
C1          C489   1.527   1_655  S
C1         C1240   1.594   1_655  S
C2           C62   1.524       .  S
C2          C301   1.593       .  S
C2          C749   1.528       .  S
C2          C913   1.577       .  S
C3           C86   1.525       .  S
C3          C277   1.594       .  S
C3          C775   1.529       .  S
C3          C889   1.577       .  S
C4           C10   1.527       .  S
C4         C1126   1.527       .  S
C4          C892   1.578       .  S
C4          C592   1.595   1_545  S
C5           C23   1.528       .  S
C5          C203   1.529       .  S
C5          C241   1.574       .  S
C5          C256   1.597       .  S
C6          C101   1.531   1_565  S
C6          C244   1.577   1_565  S
C6          C452   1.527       .  S
C6          C565   1.594       .  S
O7           C10   1.265   1_565  A
O7          Cd12   2.486   1_565  S
C8           O17   1.261       .  A
C8           O13   1.266       .  A
C8          C348   1.464       .  S
O9           C15   1.264       .  A
O9          Cd12   2.440       .  S
C10          O18   1.266       .  A
C11          O16   1.260       .  A
C11          O14   1.267       .  A
C11          C24   1.447       .  S
Cd12         O19   2.427       .  S
Cd12         O18   2.436       .  S
Cd12        O329   2.426   1_545  S
Cd12        O325   2.511       .  S
Cd12        O328   2.422   1_545  S
Cd12        O326   2.424   1_545  S
O13        Cd324   2.510       .  S
O14        Cd324   2.424       .  S
C15          O19   1.267       .  A
C15          C28   1.456       .  S
O16        Cd324   2.422       .  S
O17        Cd324   2.426       .  S
O20          C23   1.265       .  A
O20         Cd25   2.471       .  S
C21          O30   1.262       .  A
C21          O26   1.264       .  A
C21          C47   1.466       .  S
O22          C28   1.264       .  A
O22         Cd25   2.409       .  S
C23          O31   1.267       .  A
C24          O29   1.255       .  A
C24          O27   1.265       .  A
Cd25         O32   2.463       .  S
Cd25         O31   2.454       .  S
Cd25         O30   2.469       .  S
Cd25         O26   2.480       .  S
Cd25         O29   2.420       .  S
Cd25         O27   2.462       .  S
C28          O32   1.270       .  A
O33          C36   1.263   1_545  A
O33        Cd350   2.530       .  S
C34         C625   1.528       .  S
C34          O43   1.267       .  A
C34          O39   1.263       .  A
O35          C41   1.254       .  A
O35        Cd350   2.426       .  S
C36          O44   1.257       .  A
C36         C320   1.464       .  S
C37          O42   1.265       .  A
C37          O40   1.273       .  A
C37          C54   1.455       .  S
Cd38         O43   2.448       .  S
Cd38         O39   2.485       .  S
Cd38         O42   2.425       .  S
Cd38         O40   2.411       .  S
Cd38        O345   2.530       .  S
Cd38        O347   2.427       .  S
Cd38        O357   2.435       .  S
Cd38        O356   2.437       .  S
C41          O45   1.265       .  A
C41          C50   1.443       .  S
O44        Cd350   2.437   1_565  S
O45        Cd350   2.435       .  S
O46          C49   1.266       .  A
O46         Cd51   2.446       .  S
C47          O56   1.266       .  A
C47          O52   1.264       .  A
O48          C54   1.259       .  A
O48         Cd51   2.391       .  S
C49         C215   1.529       .  S
C49          O57   1.268       .  A
C50          O55   1.254       .  A
C50          O53   1.267       .  A
Cd51         O58   2.481       .  S
Cd51         O57   2.489       .  S
Cd51         O56   2.472       .  S
Cd51         O52   2.461       .  S
Cd51         O55   2.396       .  S
Cd51         O53   2.456       .  S
C54          O58   1.272       .  A
O59          C62   1.264       .  A
O59         Cd64   2.463       .  S
C60          O69   1.265       .  A
C60          O65   1.261       .  A
C60          C88   1.465   1_556  S
O61          C67   1.263       .  A
O61         Cd64   2.423       .  S
C62          O70   1.263       .  A
C63          O68   1.264       .  A
C63          O66   1.262       .  A
C63          C80   1.452       .  S
Cd64         O71   2.434       .  S
Cd64         O70   2.467       .  S
Cd64         O69   2.471       .  S
Cd64         O65   2.470       .  S
Cd64         O68   2.475       .  S
Cd64         O66   2.393       .  S
C67          O71   1.269       .  A
C67          C76   1.452       .  S
O72          C75   1.265   1_545  A
O72        Cd389   2.481   1_545  S
C73         C528   1.528       .  S
C73          O82   1.266       .  A
C73          O78   1.267       .  A
O74          C80   1.260       .  A
O74        Cd389   2.384   1_545  S
C75          O83   1.263       .  A
C75         C411   1.467   1_556  S
C76          O81   1.262       .  A
C76          O79   1.268       .  A
Cd77         O82   2.439       .  S
Cd77         O78   2.479       .  S
Cd77         O81   2.422       .  S
Cd77         O79   2.437       .  S
Cd77        O384   2.481       .  S
Cd77        O386   2.384       .  S
Cd77        O396   2.488       .  S
Cd77        O395   2.466       .  S
C80          O84   1.268       .  A
O83        Cd389   2.466       .  S
O84        Cd389   2.488   1_545  S
O85          C88   1.267       .  A
O85         Cd90   2.491       .  S
C86          O95   1.265       .  A
C86          O91   1.265       .  A
O87          C93   1.261       .  A
O87         Cd90   2.450       .  S
C88          O96   1.260       .  A
C89          O94   1.262       .  A
C89          O92   1.268       .  A
C89         C106   1.456       .  S
Cd90         O97   2.414       .  S
Cd90         O96   2.450       .  S
Cd90         O95   2.470       .  S
Cd90         O91   2.459       .  S
Cd90         O94   2.432       .  S
Cd90         O92   2.452       .  S
C93          O97   1.264       .  A
C93         C102   1.451       .  S
O98         C101   1.265   1_565  A
O98        Cd103   2.466   1_565  S
C99         O108   1.264       .  A
C99         O104   1.263       .  A
C99         C387   1.467   1_554  S
O100        C106   1.263       .  A
O100       Cd103   2.428       .  S
C101        O109   1.268       .  A
C102        O107   1.259       .  A
C102        O105   1.267       .  A
Cd103       O110   2.444       .  S
Cd103       O109   2.458       .  S
Cd103       O420   2.473   1_545  S
Cd103       O416   2.476       .  S
Cd103       O419   2.403   1_545  S
Cd103       O417   2.478   1_545  S
O104       Cd415   2.477       .  S
O105       Cd415   2.478       .  S
C106        O110   1.268       .  A
O107       Cd415   2.403       .  S
O108       Cd415   2.473       .  S
O111        C114   1.267       .  A
O111       Cd116   2.475       .  S
C112        O121   1.266       .  A
C112        O117   1.262       .  A
C112        C450   1.466   1_556  S
O113        C119   1.255       .  A
O113       Cd116   2.424   1_545  S
C114        C216   1.529       .  S
C114        O122   1.265   1_565  A
C115        O120   1.264       .  A
C115        O118   1.271       .  A
C115        C132   1.455       .  S
Cd116       O123   2.445   1_565  S
Cd116       O122   2.455   1_565  S
Cd116       O433   2.487       .  S
Cd116       O429   2.457   1_565  S
Cd116       O432   2.411       .  S
Cd116       O430   2.456       .  S
O117       Cd428   2.457       .  S
O118       Cd428   2.456       .  S
C119        O123   1.264       .  A
C119        C128   1.445       .  S
O120       Cd428   2.411       .  S
O121       Cd428   2.487       .  S
O124        C127   1.264       .  A
O124       Cd129   2.536       .  S
C125        C626   1.528   1_455  S
C125        O134   1.268       .  A
C125        O130   1.265       .  A
O126        C132   1.266       .  A
O126       Cd129   2.417       .  S
C127        O135   1.257       .  A
C127        C153   1.463   1_556  S
C128        O133   1.255       .  A
C128        O131   1.265       .  A
Cd129       O136   2.420       .  S
Cd129       O135   2.420       .  S
Cd129       O134   2.443       .  S
Cd129       O130   2.474       .  S
Cd129       O133   2.419       .  S
Cd129       O131   2.449       .  S
C132        O136   1.271       .  A
O137        C140   1.265       .  A
O137       Cd142   2.474       .  S
C138        O147   1.262       .  A
C138        O143   1.265   1_565  A
C138        C424   1.466   1_554  S
O139        C145   1.255       .  A
O139       Cd142   2.419       .  S
C140        C318   1.527       .  S
C140        O148   1.266       .  A
C141        O146   1.264       .  A
C141        O144   1.270       .  A
C141        C158   1.457       .  S
Cd142       O149   2.450       .  S
Cd142       O148   2.456       .  S
Cd142       O459   2.471       .  S
Cd142       O455   2.477       .  S
Cd142       O458   2.419       .  S
Cd142       O456   2.461       .  S
O143       Cd454   2.477   1_545  S
O144       Cd454   2.461   1_545  S
C145        O149   1.264       .  A
C145        C154   1.445       .  S
O146       Cd454   2.419   1_545  S
O147       Cd454   2.471       .  S
O150        C153   1.266       .  A
O150       Cd155   2.520       .  S
C151        C627   1.529   1_455  S
C151        O160   1.267       .  A
C151        O156   1.265       .  A
O152        C158   1.264       .  A
O152       Cd155   2.435       .  S
C153        O161   1.260       .  A
C154        O159   1.259       .  A
C154        O157   1.267       .  A
Cd155       O162   2.437       .  S
Cd155       O161   2.416       .  S
Cd155       O160   2.432       .  S
Cd155       O156   2.486       .  S
Cd155       O159   2.416       .  S
Cd155       O157   2.428       .  S
C158        O162   1.268       .  A
O163        C166   1.263       .  A
O163       Cd168   2.460       .  S
C164        C215   1.528       .  S
C164        O173   1.267       .  A
C164        O169   1.268       .  A
O165        C171   1.258       .  A
O165       Cd168   2.412       .  S
C166        O174   1.264       .  A
C166        C205   1.465       .  S
C167        O172   1.259       .  A
C167        O170   1.269       .  A
C167        C180   1.450       .  S
Cd168       O175   2.457       .  S
Cd168       O174   2.479       .  S
Cd168       O173   2.434       .  S
Cd168       O169   2.477       .  S
Cd168       O172   2.374       .  S
Cd168       O170   2.491       .  S
C171        O175   1.269       .  A
C171        C184   1.449       .  S
O176        C179   1.267       .  A
O176       Cd493   2.528       .  S
C177        C313   1.527   1_465  S
C177        O186   1.266       .  A
C177        O182   1.267   1_565  A
O178        C184   1.260       .  A
O178       Cd493   2.421       .  S
C179        O187   1.258       .  A
C179        C504   1.463       .  S
C180        O185   1.264       .  A
C180        O183   1.266       .  A
Cd181       O186   2.449       .  S
Cd181       O182   2.469   1_565  S
Cd181       O185   2.447   1_565  S
Cd181       O183   2.388   1_565  S
Cd181       O488   2.528       .  S
Cd181       O490   2.421       .  S
Cd181       O500   2.432       .  S
Cd181       O499   2.408   1_565  S
C184        O188   1.268       .  A
O187       Cd493   2.408       .  S
O188       Cd493   2.432       .  S
O189        C192   1.263       .  A
O189       Cd506   2.532       .  S
C190        C940   1.527       .  S
C190        O199   1.267       .  A
C190        O195   1.264       .  A
O191        C197   1.265       .  A
O191       Cd506   2.412   1_545  S
C192        O200   1.258   1_565  A
C192        C491   1.463       .  S
C193        O198   1.254       .  A
C193        O196   1.265       .  A
C193        C206   1.445       .  S
Cd194       O199   2.478       .  S
Cd194       O195   2.449       .  S
Cd194       O198   2.423       .  S
Cd194       O196   2.445       .  S
Cd194       O501   2.533       .  S
Cd194       O503   2.412       .  S
Cd194       O513   2.405       .  S
Cd194       O512   2.423       .  S
C197        O201   1.272       .  A
C197        C210   1.451       .  S
O200       Cd506   2.423   1_545  S
O201       Cd506   2.405   1_545  S
O202        C205   1.265       .  A
O202       Cd207   2.447       .  S
C203        O212   1.268       .  A
C203        O208   1.266       .  A
O204        C210   1.260       .  A
O204       Cd207   2.385       .  S
C205        O213   1.267       .  A
C206        O211   1.254       .  A
C206        O209   1.267       .  A
Cd207       O214   2.466       .  S
Cd207       O213   2.475       .  S
Cd207       O212   2.475       .  S
Cd207       O208   2.447       .  S
Cd207       O211   2.407       .  S
Cd207       O209   2.455       .  S
C210        O214   1.272       .  A
C215        C220   1.593       .  S
C215        C229   1.578       .  S
C216        C217   1.593   1_565  S
C216        C385   1.528   1_565  S
C216        C544   1.580       .  S
C217        C218   1.424       .  A
C217        C222   1.424       .  A
C218        C219   1.417       .  A
C218        H227   1.077       .  S
C219        C220   1.425       .  A
C219        S223   1.813       .  S
C220        C221   1.425       .  A
C221        C222   1.418       .  A
C221        H228   1.076       .  S
C222        S224   1.812       .  S
S223        H226   1.406       .  S
S224        H225   1.406       .  S
C229        C230   1.403       .  A
C229        C234   1.440       .  A
C230        C231   1.413       .  A
C230        H239   1.079       .  S
C231        C232   1.440       .  A
C231        S235   1.816       .  S
C232        C528   1.580       .  S
C232        C233   1.402       .  A
C233        C234   1.413       .  A
C233        H240   1.079       .  S
C234        S236   1.814       .  S
S235        H238   1.407       .  S
S236        H237   1.407       .  S
C241        C242   1.403       .  A
C241        C246   1.439       .  A
C242        C243   1.411       .  A
C242        H251   1.079       .  S
C243        C244   1.440       .  A
C243        S247   1.818       .  S
C244        C245   1.404       .  A
C245        C246   1.412       .  A
C245        H252   1.079       .  S
C246        S248   1.815       .  S
S247        H250   1.406       .  S
S248        H249   1.406       .  S
C253        C318   1.594       .  S
C253        C254   1.423       .  A
C253        C258   1.430       .  A
C254        C255   1.415       .  A
C254        H263   1.081       .  S
C255        C256   1.432       .  A
C255        S259   1.810       .  S
C256        C257   1.424       .  A
C257        C258   1.414       .  A
C257        H264   1.078       .  S
C258        S260   1.810       .  S
S259        H262   1.395       .  S
S260        H573   1.394       .  S
H261        S572   1.394   1_545  S
C265        C627   1.577       .  S
C265        C266   1.402       .  A
C265        C894   1.440       .  A
C266        C267   1.413   1_655  A
C266        H275   1.079       .  S
C267        C268   1.441       .  A
C267        S271   1.817       .  S
C268        C628   1.578       .  S
C268        C893   1.402       .  A
C269        C270   1.411       .  A
C269        C892   1.402       .  A
C269        H276   1.079       .  S
C270        C889   1.440       .  A
C270        S272   1.817       .  S
S271        H274   1.406       .  S
S272        H273   1.407       .  S
C277        C278   1.426       .  A
C277        C906   1.423       .  A
C278        C279   1.417       .  A
C278        H287   1.078       .  S
C279        C280   1.423       .  A
C279        S283   1.812       .  S
C280        C316   1.595       .  S
C280        C905   1.426       .  A
C281        C282   1.417       .  A
C281        C904   1.426       .  A
C281        H288   1.078       .  S
C282        C901   1.423   1_455  A
C282        S284   1.811       .  S
S283        H286   1.406       .  S
S284        H285   1.407       .  S
C289        C626   1.577       .  S
C289        C290   1.401       .  A
C289        C918   1.441       .  A
C290        C291   1.411       .  A
C290        H299   1.079       .  S
C291        C292   1.441       .  A
C291        S295   1.817       .  S
C292        C917   1.402   1_655  A
C293        C294   1.412       .  A
C293        C916   1.402       .  A
C293        H300   1.079       .  S
C294        C913   1.441       .  A
C294        S296   1.816       .  S
S295        H298   1.407   1_655  S
S296        H297   1.407       .  S
C301        C302   1.426       .  A
C301        C930   1.423       .  A
C302        C303   1.417       .  A
C302        H311   1.078       .  S
C303        C304   1.423       .  A
C303        S307   1.812       .  S
C304        C937   1.594       .  S
C304        C929   1.427       .  A
C305        C306   1.417       .  A
C305        C928   1.427       .  A
C305        H312   1.078       .  S
C306        C925   1.423   1_455  A
C306        S308   1.812       .  S
S307        H310   1.407       .  S
S308        H309   1.407       .  S
C313        C970   1.528       .  S
C313        C604   1.578   1_545  S
C313        C928   1.594   1_655  S
C314        C374   1.524       .  S
C314       C1061   1.528       .  S
C314       C1225   1.577       .  S
C314        C613   1.593       .  S
C315        C398   1.525       .  S
C315       C1087   1.529       .  S
C315       C1201   1.577       .  S
C315        C589   1.594       .  S
C316        C322   1.527       .  S
C316        C814   1.527       .  S
C316       C1204   1.578       .  S
C317        C335   1.528       .  S
C317        C515   1.529       .  S
C317        C553   1.574       .  S
C317        C568   1.597       .  S
C318        C413   1.531       .  S
C318        C556   1.577       .  S
O319        C322   1.265       .  A
O319       Cd324   2.487       .  S
C320        O329   1.261       .  A
C320        O325   1.266   1_565  A
O321        C327   1.264       .  A
O321       Cd324   2.440       .  S
C322        O330   1.266       .  A
C323        O328   1.260       .  A
C323        O326   1.267       .  A
C323        C336   1.447       .  S
Cd324       O331   2.428       .  S
Cd324       O330   2.436       .  S
C327        O331   1.267       .  A
C327        C340   1.456       .  S
O332        C335   1.265       .  A
O332       Cd337   2.471       .  S
C333        O342   1.262       .  A
C333        O338   1.264       .  A
C333        C359   1.466       .  S
O334        C340   1.264       .  A
O334       Cd337   2.409       .  S
C335        O343   1.267       .  A
C336        O341   1.255       .  A
C336        O339   1.265       .  A
Cd337       O344   2.463       .  S
Cd337       O343   2.454       .  S
Cd337       O342   2.469       .  S
Cd337       O338   2.480       .  S
Cd337       O341   2.420       .  S
Cd337       O339   2.462       .  S
C340        O344   1.270       .  A
O345        C348   1.263       .  A
C346        C937   1.528       .  S
C346        O355   1.267   1_545  A
C346        O351   1.263       .  A
O347        C353   1.255       .  A
C348        O356   1.257       .  A
C349        O354   1.265       .  A
C349        O352   1.273       .  A
C349        C366   1.455       .  S
Cd350       O355   2.448   1_545  S
Cd350       O351   2.485       .  S
Cd350       O354   2.425   1_545  S
Cd350       O352   2.411   1_545  S
C353        O357   1.265       .  A
C353        C362   1.443       .  S
O358        C361   1.266       .  A
O358       Cd363   2.446       .  S
C359        O368   1.266       .  A
C359        O364   1.264       .  A
O360        C366   1.259       .  A
O360       Cd363   2.391       .  S
C361        C527   1.529       .  S
C361        O369   1.268       .  A
C362        O367   1.254       .  A
C362        O365   1.267       .  A
Cd363       O370   2.481       .  S
Cd363       O369   2.489       .  S
Cd363       O368   2.472       .  S
Cd363       O364   2.461       .  S
Cd363       O367   2.395       .  S
Cd363       O365   2.456       .  S
C366        O370   1.272       .  A
O371        C374   1.264       .  A
O371       Cd376   2.463       .  S
C372        O381   1.265       .  A
C372        O377   1.261       .  A
C372        C400   1.464   1_556  S
O373        C379   1.263       .  A
O373       Cd376   2.424       .  S
C374        O382   1.263       .  A
C375        O380   1.264       .  A
C375        O378   1.262       .  A
C375        C392   1.452       .  S
Cd376       O383   2.434       .  S
Cd376       O382   2.467       .  S
Cd376       O381   2.470       .  S
Cd376       O377   2.471       .  S
Cd376       O380   2.475       .  S
Cd376       O378   2.393       .  S
C379        O383   1.269       .  A
C379        C388   1.452       .  S
O384        C387   1.265       .  A
C385        O394   1.266   1_545  A
C385        O390   1.267       .  A
O386        C392   1.260       .  A
C387        O395   1.263       .  A
C388        O393   1.262       .  A
C388        O391   1.268       .  A
Cd389       O394   2.439       .  S
Cd389       O390   2.479   1_565  S
Cd389       O393   2.422       .  S
Cd389       O391   2.437       .  S
C392        O396   1.268       .  A
O397        C400   1.267       .  A
O397       Cd402   2.491       .  S
C398        O407   1.265       .  A
C398        O403   1.265       .  A
O399        C405   1.261       .  A
O399       Cd402   2.450       .  S
C400        O408   1.260       .  A
C401        O406   1.262       .  A
C401        O404   1.268       .  A
C401        C418   1.456       .  S
Cd402       O409   2.413       .  S
Cd402       O408   2.450       .  S
Cd402       O407   2.470       .  S
Cd402       O403   2.459       .  S
Cd402       O406   2.432       .  S
Cd402       O404   2.452       .  S
C405        O409   1.264       .  A
C405        C414   1.451       .  S
O410        C413   1.265       .  A
O410       Cd415   2.466       .  S
C411        O420   1.264       .  A
C411        O416   1.263   1_565  A
O412        C418   1.263       .  A
O412       Cd415   2.428       .  S
C413        O421   1.268       .  A
C414        O419   1.259       .  A
C414        O417   1.267       .  A
Cd415       O422   2.445       .  S
Cd415       O421   2.458       .  S
C418        O422   1.268       .  A
O423        C426   1.267       .  A
O423       Cd428   2.475       .  S
C424        O433   1.266       .  A
C424        O429   1.262   1_565  A
O425        C431   1.255       .  A
O425       Cd428   2.424       .  S
C426        C528   1.529       .  S
C426        O434   1.265       .  A
C427        O432   1.264       .  A
C427        O430   1.271       .  A
C427        C444   1.455       .  S
Cd428       O435   2.445       .  S
Cd428       O434   2.455       .  S
C431        O435   1.264       .  A
C431        C440   1.445       .  S
O436        C439   1.264       .  A
O436       Cd441   2.536       .  S
C437        C938   1.528   1_455  S
C437        O446   1.268       .  A
C437        O442   1.265       .  A
O438        C444   1.265       .  A
O438       Cd441   2.417       .  S
C439        O447   1.257       .  A
C439        C465   1.463   1_556  S
C440        O445   1.255       .  A
C440        O443   1.265       .  A
Cd441       O448   2.420       .  S
Cd441       O447   2.420       .  S
Cd441       O446   2.443       .  S
Cd441       O442   2.474       .  S
Cd441       O445   2.419       .  S
Cd441       O443   2.448       .  S
C444        O448   1.271       .  A
O449        C452   1.265       .  A
O449       Cd454   2.474       .  S
C450        O459   1.262       .  A
C450        O455   1.265       .  A
O451        C457   1.255       .  A
O451       Cd454   2.419       .  S
C452        O460   1.266   1_565  A
C453        O458   1.264       .  A
C453        O456   1.270       .  A
C453        C470   1.457       .  S
Cd454       O461   2.450       .  S
Cd454       O460   2.456   1_565  S
C457        O461   1.264       .  A
C457        C466   1.445       .  S
O462        C465   1.266       .  A
O462       Cd467   2.520       .  S
C463        C939   1.529   1_455  S
C463        O472   1.267       .  A
C463        O468   1.265       .  A
O464        C470   1.264       .  A
O464       Cd467   2.435       .  S
C465        O473   1.260       .  A
C466        O471   1.259       .  A
C466        O469   1.267       .  A
Cd467       O474   2.437       .  S
Cd467       O473   2.416       .  S
Cd467       O472   2.432       .  S
Cd467       O468   2.486       .  S
Cd467       O471   2.416       .  S
Cd467       O469   2.428       .  S
C470        O474   1.268       .  A
O475        C478   1.263       .  A
O475       Cd480   2.460       .  S
C476        C527   1.528       .  S
C476        O485   1.267       .  A
C476        O481   1.268       .  A
O477        C483   1.258       .  A
O477       Cd480   2.412       .  S
C478        O486   1.264       .  A
C478        C517   1.465       .  S
C479        O484   1.259       .  A
C479        O482   1.269       .  A
C479        C492   1.450       .  S
Cd480       O487   2.457       .  S
Cd480       O486   2.479       .  S
Cd480       O485   2.434       .  S
Cd480       O481   2.477       .  S
Cd480       O484   2.374       .  S
Cd480       O482   2.491       .  S
C483        O487   1.269       .  A
C483        C496   1.449       .  S
O488        C491   1.267       .  A
C489        O498   1.266       .  A
C489        O494   1.267       .  A
O490        C496   1.260       .  A
C491        O499   1.258   1_565  A
C492        O497   1.264       .  A
C492        O495   1.266       .  A
Cd493       O498   2.449       .  S
Cd493       O494   2.469       .  S
Cd493       O497   2.447       .  S
Cd493       O495   2.388       .  S
C496        O500   1.268       .  A
O501        C504   1.263       .  A
C502        C628   1.527       .  S
C502        O511   1.267       .  A
C502        O507   1.264   1_545  A
O503        C509   1.265       .  A
C504        O512   1.258       .  A
C505        O510   1.254       .  A
C505        O508   1.265       .  A
C505        C518   1.445       .  S
Cd506       O511   2.478   1_565  S
Cd506       O507   2.448       .  S
Cd506       O510   2.423       .  S
Cd506       O508   2.445       .  S
C509        O513   1.272       .  A
C509        C522   1.451       .  S
O514        C517   1.265       .  A
O514       Cd519   2.447       .  S
C515        O524   1.268       .  A
C515        O520   1.266       .  A
O516        C522   1.260       .  A
O516       Cd519   2.385       .  S
C517        O525   1.267       .  A
C518        O523   1.254       .  A
C518        O521   1.267       .  A
Cd519       O526   2.466       .  S
Cd519       O525   2.475       .  S
Cd519       O524   2.475       .  S
Cd519       O520   2.447       .  S
Cd519       O523   2.407       .  S
Cd519       O521   2.455       .  S
C522        O526   1.272       .  A
C527        C532   1.593       .  S
C527        C541   1.578       .  S
C528        C529   1.593       .  S
C529        C530   1.424       .  A
C529        C534   1.424       .  A
C530        C531   1.417       .  A
C530        H539   1.077       .  S
C531        C532   1.425       .  A
C531        S535   1.813       .  S
C532        C533   1.425       .  A
C533        C534   1.418       .  A
C533        H540   1.076       .  S
C534        S536   1.812       .  S
S535        H538   1.406       .  S
S536        H537   1.406       .  S
C541        C542   1.403       .  A
C541        C546   1.440       .  A
C542        C543   1.413       .  A
C542        H551   1.079       .  S
C543        C544   1.440       .  A
C543        S547   1.816       .  S
C544        C545   1.402       .  A
C545        C546   1.413       .  A
C545        H552   1.079       .  S
C546        S548   1.814       .  S
S547        H550   1.407       .  S
S548        H549   1.407       .  S
C553        C554   1.403       .  A
C553        C558   1.439       .  A
C554        C555   1.411       .  A
C554        H563   1.079       .  S
C555        C556   1.440       .  A
C555        S559   1.818       .  S
C556        C557   1.404       .  A
C557        C558   1.412       .  A
C557        H564   1.079       .  S
C558        S560   1.815       .  S
S559        H562   1.406       .  S
S560        H561   1.406       .  S
C565        C566   1.423       .  A
C565        C570   1.430       .  A
C566        C567   1.415       .  A
C566        H575   1.081       .  S
C567        C568   1.432       .  A
C567        S571   1.810       .  S
C568        C569   1.424       .  A
C569        C570   1.414       .  A
C569        H576   1.078       .  S
C570        S572   1.810       .  S
S571        H574   1.395       .  S
C577        C939   1.577       .  S
C577        C578   1.402       .  A
C577       C1206   1.440       .  A
C578        C579   1.413   1_655  A
C578        H587   1.079       .  S
C579        C580   1.441       .  A
C579        S583   1.817       .  S
C580        C940   1.578       .  S
C580       C1205   1.402       .  A
C581       C1204   1.402       .  A
C581        C582   1.411       .  A
C581        H588   1.079       .  S
C582       C1201   1.440       .  A
C582        S584   1.817       .  S
S583        H586   1.406       .  S
S584        H585   1.407       .  S
C589        C590   1.426       .  A
C589       C1218   1.423       .  A
C590        C591   1.417       .  A
C590        H599   1.078       .  S
C591        C592   1.423       .  A
C591        S595   1.812       .  S
C592       C1217   1.426       .  A
C593       C1216   1.426       .  A
C593        C594   1.417       .  A
C593        H600   1.078       .  S
C594       C1213   1.423   1_455  A
C594        S596   1.811       .  S
S595        H598   1.406       .  S
S596        H597   1.407       .  S
C601        C938   1.577       .  S
C601        C602   1.401       .  A
C601       C1230   1.441       .  A
C602        C603   1.411       .  A
C602        H611   1.079       .  S
C603        C604   1.441       .  A
C603        S607   1.817       .  S
C604       C1229   1.402   1_655  A
C605       C1228   1.402       .  A
C605        C606   1.412       .  A
C605        H612   1.079       .  S
C606       C1225   1.441       .  A
C606        S608   1.816       .  S
S607        H610   1.407   1_655  S
S608        H609   1.407       .  S
C613        C614   1.426       .  A
C613       C1242   1.423       .  A
C614        C615   1.417       .  A
C614        H623   1.078       .  S
C615        C616   1.423       .  A
C615        S619   1.812       .  S
C616        C625   1.594       .  S
C616       C1241   1.427       .  A
C617       C1240   1.427       .  A
C617        C618   1.417       .  A
C617        H624   1.078       .  S
C618       C1237   1.423   1_455  A
C618        S620   1.812       .  S
S619        H622   1.407       .  S
S620        H621   1.407       .  S
C625       C1113   1.527       .  S
C625        C916   1.578       .  S
C626        C686   1.524       .  S
C626        C925   1.593       .  S
C627        C710   1.525       .  S
C627        C901   1.594       .  S
C628        C634   1.527   1_455  S
C628       C1216   1.595   1_545  S
C629        C647   1.528       .  S
C629        C827   1.529       .  S
C629        C865   1.574       .  S
C629        C880   1.597       .  S
C630        C725   1.531   1_565  S
C630       C1076   1.527       .  S
C630        C868   1.577   1_565  S
C630       C1189   1.594       .  S
O631        C634   1.265   1_565  A
O631       Cd636   2.486   1_565  S
C632        O641   1.261       .  A
C632        O637   1.266       .  A
C632        C972   1.464       .  S
O633        C639   1.264       .  A
O633       Cd636   2.440       .  S
C634        O642   1.266       .  A
C635        O640   1.260       .  A
C635        O638   1.267       .  A
C635        C648   1.447       .  S
Cd636       O643   2.427       .  S
Cd636       O642   2.436       .  S
Cd636       O953   2.426   1_545  S
Cd636       O949   2.511       .  S
Cd636       O952   2.422   1_545  S
Cd636       O950   2.424   1_545  S
O637       Cd948   2.510       .  S
O638       Cd948   2.424       .  S
C639        O643   1.267       .  A
C639        C652   1.456       .  S
O640       Cd948   2.422       .  S
O641       Cd948   2.426       .  S
O644        C647   1.265       .  A
O644       Cd649   2.471       .  S
C645        O654   1.262       .  A
C645        O650   1.264       .  A
C645        C671   1.466       .  S
O646        C652   1.264       .  A
O646       Cd649   2.409       .  S
C647        O655   1.267       .  A
C648        O653   1.255       .  A
C648        O651   1.265       .  A
Cd649       O656   2.463       .  S
Cd649       O655   2.454       .  S
Cd649       O654   2.469       .  S
Cd649       O650   2.480       .  S
Cd649       O653   2.420       .  S
Cd649       O651   2.462       .  S
C652        O656   1.270       .  A
O657        C660   1.263   1_545  A
O657       Cd974   2.530       .  S
C658        O667   1.267       .  A
C658        O663   1.263       .  A
O659        C665   1.254       .  A
O659       Cd974   2.426       .  S
C660        O668   1.257       .  A
C660        C944   1.464       .  S
C661        O666   1.265       .  A
C661        O664   1.273       .  A
C661        C678   1.455       .  S
Cd662       O969   2.530       .  S
Cd662       O971   2.427       .  S
Cd662       O981   2.435       .  S
Cd662       O980   2.437       .  S
Cd662       O667   2.448       .  S
Cd662       O663   2.485       .  S
Cd662       O666   2.425       .  S
Cd662       O664   2.411       .  S
C665        O669   1.265       .  A
C665        C674   1.443       .  S
O668       Cd974   2.437   1_565  S
O669       Cd974   2.435       .  S
O670        C673   1.266       .  A
O670       Cd675   2.446       .  S
C671        O680   1.266       .  A
C671        O676   1.264       .  A
O672        C678   1.259       .  A
O672       Cd675   2.391       .  S
C673        C839   1.529       .  S
C673        O681   1.268       .  A
C674        O679   1.254       .  A
C674        O677   1.267       .  A
Cd675       O682   2.481       .  S
Cd675       O681   2.489       .  S
Cd675       O680   2.472       .  S
Cd675       O676   2.461       .  S
Cd675       O679   2.396       .  S
Cd675       O677   2.456       .  S
C678        O682   1.272       .  A
O683        C686   1.264       .  A
O683       Cd688   2.463       .  S
C684        O693   1.265       .  A
C684        O689   1.261       .  A
C684        C712   1.465   1_556  S
O685        C691   1.263       .  A
O685       Cd688   2.423       .  S
C686        O694   1.263       .  A
C687        O692   1.264       .  A
C687        O690   1.262       .  A
C687        C704   1.452       .  S
Cd688       O695   2.434       .  S
Cd688       O694   2.467       .  S
Cd688       O693   2.471       .  S
Cd688       O689   2.470       .  S
Cd688       O692   2.475       .  S
Cd688       O690   2.393       .  S
C691        O695   1.269       .  A
C691        C700   1.452       .  S
O696        C699   1.265   1_545  A
O696      Cd1013   2.481   1_545  S
C697       C1152   1.528       .  S
C697        O706   1.266       .  A
C697        O702   1.267       .  A
O698        C704   1.260       .  A
O698      Cd1013   2.384   1_545  S
C699        O707   1.263       .  A
C699       C1035   1.467   1_556  S
C700        O705   1.262       .  A
C700        O703   1.268       .  A
Cd701      O1008   2.481       .  S
Cd701      O1010   2.384       .  S
Cd701      O1020   2.488       .  S
Cd701      O1019   2.466       .  S
Cd701       O706   2.439       .  S
Cd701       O702   2.479       .  S
Cd701       O705   2.422       .  S
Cd701       O703   2.437       .  S
C704        O708   1.268       .  A
O707      Cd1013   2.466       .  S
O708      Cd1013   2.488   1_545  S
O709        C712   1.267       .  A
O709       Cd714   2.491       .  S
C710        O719   1.265       .  A
C710        O715   1.265       .  A
O711        C717   1.261       .  A
O711       Cd714   2.450       .  S
C712        O720   1.260       .  A
C713        O718   1.262       .  A
C713        O716   1.268       .  A
C713        C730   1.456       .  S
Cd714       O721   2.414       .  S
Cd714       O720   2.450       .  S
Cd714       O719   2.470       .  S
Cd714       O715   2.459       .  S
Cd714       O718   2.432       .  S
Cd714       O716   2.452       .  S
C717        O721   1.264       .  A
C717        C726   1.451       .  S
O722        C725   1.265   1_565  A
O722       Cd727   2.466   1_565  S
C723        O732   1.264       .  A
C723        O728   1.263       .  A
C723       C1011   1.467   1_554  S
O724        C730   1.263       .  A
O724       Cd727   2.428       .  S
C725        O733   1.268       .  A
C726        O731   1.259       .  A
C726        O729   1.267       .  A
Cd727       O734   2.444       .  S
Cd727       O733   2.458       .  S
Cd727      O1044   2.473   1_545  S
Cd727      O1040   2.476       .  S
Cd727      O1043   2.403   1_545  S
Cd727      O1041   2.478   1_545  S
O728      Cd1039   2.477       .  S
O729      Cd1039   2.478       .  S
C730        O734   1.268       .  A
O731      Cd1039   2.403       .  S
O732      Cd1039   2.473       .  S
O735        C738   1.267       .  A
O735       Cd740   2.475       .  S
C736        O745   1.266       .  A
C736        O741   1.262       .  A
C736       C1074   1.466   1_556  S
O737        C743   1.255       .  A
O737       Cd740   2.424   1_545  S
C738        C840   1.529       .  S
C738        O746   1.265   1_565  A
C739        O744   1.264       .  A
C739        O742   1.271       .  A
C739        C756   1.455       .  S
Cd740       O747   2.445   1_565  S
Cd740       O746   2.455   1_565  S
Cd740      O1057   2.487       .  S
Cd740      O1053   2.457   1_565  S
Cd740      O1056   2.411       .  S
Cd740      O1054   2.456       .  S
O741      Cd1052   2.457       .  S
O742      Cd1052   2.456       .  S
C743        O747   1.264       .  A
C743        C752   1.445       .  S
O744      Cd1052   2.411       .  S
O745      Cd1052   2.487       .  S
O748        C751   1.264       .  A
O748       Cd753   2.536       .  S
C749        O758   1.268       .  A
C749        O754   1.265       .  A
O750        C756   1.266       .  A
O750       Cd753   2.417       .  S
C751        O759   1.257       .  A
C751        C777   1.463   1_556  S
C752        O757   1.255       .  A
C752        O755   1.265       .  A
Cd753       O760   2.420       .  S
Cd753       O759   2.420       .  S
Cd753       O758   2.443       .  S
Cd753       O754   2.474       .  S
Cd753       O757   2.419       .  S
Cd753       O755   2.449       .  S
C756        O760   1.271       .  A
O761        C764   1.265       .  A
O761       Cd766   2.474       .  S
C762        O771   1.262       .  A
C762        O767   1.265   1_565  A
C762       C1048   1.466   1_554  S
O763        C769   1.255       .  A
O763       Cd766   2.419       .  S
C764        C942   1.527       .  S
C764        O772   1.266       .  A
C765        O770   1.264       .  A
C765        O768   1.270       .  A
C765        C782   1.457       .  S
Cd766       O773   2.450       .  S
Cd766       O772   2.456       .  S
Cd766      O1083   2.471       .  S
Cd766      O1079   2.477       .  S
Cd766      O1082   2.419       .  S
Cd766      O1080   2.461       .  S
O767      Cd1078   2.477   1_545  S
O768      Cd1078   2.461   1_545  S
C769        O773   1.264       .  A
C769        C778   1.445       .  S
O770      Cd1078   2.419   1_545  S
O771      Cd1078   2.471       .  S
O774        C777   1.266       .  A
O774       Cd779   2.519       .  S
C775        O784   1.267       .  A
C775        O780   1.265       .  A
O776        C782   1.264       .  A
O776       Cd779   2.435       .  S
C777        O785   1.260       .  A
C778        O783   1.259       .  A
C778        O781   1.267       .  A
Cd779       O786   2.437       .  S
Cd779       O785   2.416       .  S
Cd779       O784   2.432       .  S
Cd779       O780   2.486       .  S
Cd779       O783   2.416       .  S
Cd779       O781   2.428       .  S
C782        O786   1.268       .  A
O787        C790   1.263       .  A
O787       Cd792   2.460       .  S
C788        C839   1.528       .  S
C788        O797   1.267       .  A
C788        O793   1.268       .  A
O789        C795   1.258       .  A
O789       Cd792   2.412       .  S
C790        O798   1.264       .  A
C790        C829   1.465       .  S
C791        O796   1.259       .  A
C791        O794   1.269       .  A
C791        C804   1.450       .  S
Cd792       O799   2.457       .  S
Cd792       O798   2.479       .  S
Cd792       O797   2.434       .  S
Cd792       O793   2.477       .  S
Cd792       O796   2.374       .  S
Cd792       O794   2.491       .  S
C795        O799   1.269       .  A
C795        C808   1.449       .  S
O800        C803   1.267       .  A
O800      Cd1117   2.528       .  S
C801        C937   1.527   1_565  S
C801        O810   1.266       .  A
C801        O806   1.267   1_565  A
O802        C808   1.260       .  A
O802      Cd1117   2.421       .  S
C803        O811   1.258       .  A
C803       C1128   1.463       .  S
C804        O809   1.264       .  A
C804        O807   1.266       .  A
Cd805      O1112   2.528       .  S
Cd805      O1114   2.421       .  S
Cd805      O1124   2.432       .  S
Cd805      O1123   2.408   1_565  S
Cd805       O810   2.449       .  S
Cd805       O806   2.469   1_565  S
Cd805       O809   2.447   1_565  S
Cd805       O807   2.388   1_565  S
C808        O812   1.268       .  A
O811      Cd1117   2.408       .  S
O812      Cd1117   2.432       .  S
O813        C816   1.263       .  A
O813      Cd1130   2.532       .  S
C814        O823   1.267       .  A
C814        O819   1.264       .  A
O815        C821   1.265       .  A
O815      Cd1130   2.412   1_545  S
C816        O824   1.258   1_565  A
C816       C1115   1.463       .  S
C817        O822   1.254       .  A
C817        O820   1.265       .  A
C817        C830   1.445       .  S
Cd818      O1125   2.533       .  S
Cd818      O1127   2.412       .  S
Cd818      O1137   2.405       .  S
Cd818      O1136   2.423       .  S
Cd818       O823   2.478       .  S
Cd818       O819   2.449       .  S
Cd818       O822   2.423       .  S
Cd818       O820   2.445       .  S
C821        O825   1.272       .  A
C821        C834   1.451       .  S
O824      Cd1130   2.423   1_545  S
O825      Cd1130   2.405   1_545  S
O826        C829   1.265       .  A
O826       Cd831   2.447       .  S
C827        O836   1.268       .  A
C827        O832   1.266       .  A
O828        C834   1.260       .  A
O828       Cd831   2.385       .  S
C829        O837   1.267       .  A
C830        O835   1.254       .  A
C830        O833   1.267       .  A
Cd831       O838   2.466       .  S
Cd831       O837   2.475       .  S
Cd831       O836   2.475       .  S
Cd831       O832   2.447       .  S
Cd831       O835   2.407       .  S
Cd831       O833   2.455       .  S
C834        O838   1.272       .  A
C839        C844   1.593       .  S
C839        C853   1.578       .  S
C840       C1009   1.528   1_565  S
C840        C841   1.593   1_565  S
C840       C1168   1.580       .  S
C841        C842   1.424       .  A
C841        C846   1.424       .  A
C842        C843   1.417       .  A
C842        H851   1.077       .  S
C843        C844   1.425       .  A
C843        S847   1.813       .  S
C844        C845   1.425       .  A
C845        C846   1.418       .  A
C845        H852   1.076       .  S
C846        S848   1.812       .  S
S847        H850   1.406       .  S
S848        H849   1.406       .  S
C853        C854   1.403       .  A
C853        C858   1.440       .  A
C854        C855   1.413       .  A
C854        H863   1.079       .  S
C855        C856   1.440       .  A
C855        S859   1.816       .  S
C856       C1152   1.580       .  S
C856        C857   1.402       .  A
C857        C858   1.413       .  A
C857        H864   1.079       .  S
C858        S860   1.814       .  S
S859        H862   1.407       .  S
S860        H861   1.407       .  S
C865        C866   1.403       .  A
C865        C870   1.439       .  A
C866        C867   1.411       .  A
C866        H875   1.079       .  S
C867        C868   1.440       .  A
C867        S871   1.818       .  S
C868        C869   1.404       .  A
C869        C870   1.412       .  A
C869        H876   1.079       .  S
C870        S872   1.815       .  S
S871        H874   1.406       .  S
S872        H873   1.406       .  S
C877        C942   1.594       .  S
C877        C878   1.423       .  A
C877        C882   1.430       .  A
C878        C879   1.415       .  A
C878        H887   1.081       .  S
C879        C880   1.432       .  A
C879        S883   1.810       .  S
C880        C881   1.424       .  A
C881        C882   1.414       .  A
C881        H888   1.078       .  S
C882        S884   1.810       .  S
S883        H886   1.395       .  S
S884       H1197   1.394       .  S
H885       S1196   1.394   1_545  S
C889        C890   1.402       .  A
C890        C891   1.413       .  A
C890        H899   1.079       .  S
C891        C892   1.441       .  A
C891        S895   1.817       .  S
C893        C894   1.411   1_455  A
C893        H900   1.079       .  S
C894        S896   1.817       .  S
S895        H898   1.406       .  S
S896        H897   1.407       .  S
C901        C902   1.426       .  A
C902        C903   1.417       .  A
C902        H911   1.078       .  S
C903        C904   1.423   1_655  A
C903        S907   1.812       .  S
C904        C940   1.595       .  S
C905        C906   1.417       .  A
C905        H912   1.078       .  S
C906        S908   1.811       .  S
S907        H910   1.406       .  S
S908        H909   1.407       .  S
C913        C914   1.401       .  A
C914        C915   1.411       .  A
C914        H923   1.079       .  S
C915        C916   1.441       .  A
C915        S919   1.817       .  S
C917        C918   1.412   1_455  A
C917        H924   1.079       .  S
C918        S920   1.816       .  S
S919        H922   1.407       .  S
S920        H921   1.407       .  S
C925        C926   1.426       .  A
C926        C927   1.417       .  A
C926        H935   1.078       .  S
C927        C928   1.423   1_655  A
C927        S931   1.812       .  S
C929        C930   1.417       .  A
C929        H936   1.078       .  S
C930        S932   1.812       .  S
S931        H934   1.407       .  S
S932        H933   1.407       .  S
C937       C1228   1.578   1_545  S
C938        C998   1.524       .  S
C938       C1237   1.593       .  S
C939       C1022   1.525       .  S
C939       C1213   1.594       .  S
C940        C946   1.527   1_455  S
C941        C959   1.528       .  S
C941       C1139   1.529       .  S
C941       C1177   1.574       .  S
C941       C1192   1.597       .  S
C942       C1037   1.531       .  S
C942       C1180   1.577       .  S
O943        C946   1.265       .  A
O943       Cd948   2.487       .  S
C944        O953   1.261       .  A
C944        O949   1.266   1_565  A
O945        C951   1.264       .  A
O945       Cd948   2.440       .  S
C946        O954   1.266       .  A
C947        O952   1.260       .  A
C947        O950   1.267       .  A
C947        C960   1.447       .  S
Cd948       O955   2.428       .  S
Cd948       O954   2.436       .  S
C951        O955   1.267       .  A
C951        C964   1.456       .  S
O956        C959   1.265       .  A
O956       Cd961   2.471       .  S
C957        O966   1.262       .  A
C957        O962   1.264       .  A
C957        C983   1.466       .  S
O958        C964   1.264       .  A
O958       Cd961   2.409       .  S
C959        O967   1.267       .  A
C960        O965   1.255       .  A
C960        O963   1.265       .  A
Cd961       O968   2.463       .  S
Cd961       O967   2.454       .  S
Cd961       O966   2.469       .  S
Cd961       O962   2.480       .  S
Cd961       O965   2.420       .  S
Cd961       O963   2.462       .  S
C964        O968   1.270       .  A
O969        C972   1.263       .  A
C970        O979   1.267   1_545  A
C970        O975   1.263       .  A
O971        C977   1.255       .  A
C972        O980   1.257       .  A
C973        O978   1.265       .  A
C973        O976   1.273       .  A
C973        C990   1.455       .  S
Cd974       O979   2.448   1_545  S
Cd974       O975   2.485       .  S
Cd974       O978   2.425   1_545  S
Cd974       O976   2.411   1_545  S
C977        O981   1.265       .  A
C977        C986   1.443       .  S
O982        C985   1.266       .  A
O982       Cd987   2.446       .  S
C983        O992   1.266       .  A
C983        O988   1.264       .  A
O984        C990   1.259       .  A
O984       Cd987   2.391       .  S
C985       C1151   1.529       .  S
C985        O993   1.268       .  A
C986        O991   1.254       .  A
C986        O989   1.267       .  A
Cd987       O994   2.481       .  S
Cd987       O993   2.489       .  S
Cd987       O992   2.472       .  S
Cd987       O988   2.461       .  S
Cd987       O991   2.395       .  S
Cd987       O989   2.456       .  S
C990        O994   1.272       .  A
O995        C998   1.264       .  A
O995      Cd1000   2.463       .  S
C996       O1005   1.265       .  A
C996       O1001   1.261       .  A
C996       C1024   1.464   1_556  S
O997       C1003   1.263       .  A
O997      Cd1000   2.424       .  S
C998       O1006   1.263       .  A
C999       O1004   1.264       .  A
C999       O1002   1.262       .  A
C999       C1016   1.452       .  S
Cd1000     O1007   2.434       .  S
Cd1000     O1006   2.467       .  S
Cd1000     O1005   2.470       .  S
Cd1000     O1001   2.471       .  S
Cd1000     O1004   2.475       .  S
Cd1000     O1002   2.393       .  S
C1003      O1007   1.269       .  A
C1003      C1012   1.452       .  S
O1008      C1011   1.265       .  A
C1009      O1018   1.266   1_545  A
C1009      O1014   1.267       .  A
O1010      C1016   1.260       .  A
C1011      O1019   1.263       .  A
C1012      O1017   1.262       .  A
C1012      O1015   1.268       .  A
Cd1013     O1018   2.439       .  S
Cd1013     O1014   2.479   1_565  S
Cd1013     O1017   2.422       .  S
Cd1013     O1015   2.437       .  S
C1016      O1020   1.268       .  A
O1021      C1024   1.267       .  A
O1021     Cd1026   2.491       .  S
C1022      O1031   1.265       .  A
C1022      O1027   1.265       .  A
O1023      C1029   1.261       .  A
O1023     Cd1026   2.450       .  S
C1024      O1032   1.260       .  A
C1025      O1030   1.262       .  A
C1025      O1028   1.268       .  A
C1025      C1042   1.456       .  S
Cd1026     O1033   2.413       .  S
Cd1026     O1032   2.450       .  S
Cd1026     O1031   2.470       .  S
Cd1026     O1027   2.459       .  S
Cd1026     O1030   2.432       .  S
Cd1026     O1028   2.452       .  S
C1029      O1033   1.264       .  A
C1029      C1038   1.451       .  S
O1034      C1037   1.265       .  A
O1034     Cd1039   2.466       .  S
C1035      O1044   1.264       .  A
C1035      O1040   1.263   1_565  A
O1036      C1042   1.263       .  A
O1036     Cd1039   2.428       .  S
C1037      O1045   1.268       .  A
C1038      O1043   1.259       .  A
C1038      O1041   1.267       .  A
Cd1039     O1046   2.445       .  S
Cd1039     O1045   2.458       .  S
C1042      O1046   1.268       .  A
O1047      C1050   1.267       .  A
O1047     Cd1052   2.475       .  S
C1048      O1057   1.266       .  A
C1048      O1053   1.262   1_565  A
O1049      C1055   1.255       .  A
O1049     Cd1052   2.424       .  S
C1050      C1152   1.529       .  S
C1050      O1058   1.265       .  A
C1051      O1056   1.264       .  A
C1051      O1054   1.271       .  A
C1051      C1068   1.455       .  S
Cd1052     O1059   2.445       .  S
Cd1052     O1058   2.455       .  S
C1055      O1059   1.264       .  A
C1055      C1064   1.445       .  S
O1060      C1063   1.264       .  A
O1060     Cd1065   2.536       .  S
C1061      O1070   1.268       .  A
C1061      O1066   1.265       .  A
O1062      C1068   1.265       .  A
O1062     Cd1065   2.417       .  S
C1063      O1071   1.257       .  A
C1063      C1089   1.463   1_556  S
C1064      O1069   1.255       .  A
C1064      O1067   1.265       .  A
Cd1065     O1072   2.420       .  S
Cd1065     O1071   2.420       .  S
Cd1065     O1070   2.443       .  S
Cd1065     O1066   2.474       .  S
Cd1065     O1069   2.419       .  S
Cd1065     O1067   2.448       .  S
C1068      O1072   1.271       .  A
O1073      C1076   1.265       .  A
O1073     Cd1078   2.474       .  S
C1074      O1083   1.262       .  A
C1074      O1079   1.265       .  A
O1075      C1081   1.255       .  A
O1075     Cd1078   2.419       .  S
C1076      O1084   1.266   1_565  A
C1077      O1082   1.264       .  A
C1077      O1080   1.270       .  A
C1077      C1094   1.457       .  S
Cd1078     O1085   2.450       .  S
Cd1078     O1084   2.456   1_565  S
C1081      O1085   1.264       .  A
C1081      C1090   1.445       .  S
O1086      C1089   1.266       .  A
O1086     Cd1091   2.520       .  S
C1087      O1096   1.267       .  A
C1087      O1092   1.265       .  A
O1088      C1094   1.264       .  A
O1088     Cd1091   2.435       .  S
C1089      O1097   1.260       .  A
C1090      O1095   1.259       .  A
C1090      O1093   1.267       .  A
Cd1091     O1098   2.437       .  S
Cd1091     O1097   2.416       .  S
Cd1091     O1096   2.432       .  S
Cd1091     O1092   2.486       .  S
Cd1091     O1095   2.416       .  S
Cd1091     O1093   2.428       .  S
C1094      O1098   1.268       .  A
O1099      C1102   1.263       .  A
O1099     Cd1104   2.460       .  S
C1100      C1151   1.528       .  S
C1100      O1109   1.267       .  A
C1100      O1105   1.268       .  A
O1101      C1107   1.258       .  A
O1101     Cd1104   2.412       .  S
C1102      O1110   1.264       .  A
C1102      C1141   1.465       .  S
C1103      O1108   1.259       .  A
C1103      O1106   1.269       .  A
C1103      C1116   1.450       .  S
Cd1104     O1111   2.457       .  S
Cd1104     O1110   2.479       .  S
Cd1104     O1109   2.434       .  S
Cd1104     O1105   2.477       .  S
Cd1104     O1108   2.374       .  S
Cd1104     O1106   2.491       .  S
C1107      O1111   1.269       .  A
C1107      C1120   1.449       .  S
O1112      C1115   1.267       .  A
C1113      O1122   1.266       .  A
C1113      O1118   1.267       .  A
O1114      C1120   1.260       .  A
C1115      O1123   1.258   1_565  A
C1116      O1121   1.264       .  A
C1116      O1119   1.266       .  A
Cd1117     O1122   2.449       .  S
Cd1117     O1118   2.469       .  S
Cd1117     O1121   2.447       .  S
Cd1117     O1119   2.388       .  S
C1120      O1124   1.268       .  A
O1125      C1128   1.263       .  A
C1126      O1135   1.267       .  A
C1126      O1131   1.264   1_545  A
O1127      C1133   1.265       .  A
C1128      O1136   1.258       .  A
C1129      O1134   1.254       .  A
C1129      O1132   1.265       .  A
C1129      C1142   1.445       .  S
Cd1130     O1135   2.478   1_565  S
Cd1130     O1131   2.448       .  S
Cd1130     O1134   2.423       .  S
Cd1130     O1132   2.445       .  S
C1133      O1137   1.272       .  A
C1133      C1146   1.451       .  S
O1138      C1141   1.265       .  A
O1138     Cd1143   2.447       .  S
C1139      O1148   1.268       .  A
C1139      O1144   1.266       .  A
O1140      C1146   1.260       .  A
O1140     Cd1143   2.385       .  S
C1141      O1149   1.267       .  A
C1142      O1147   1.254       .  A
C1142      O1145   1.267       .  A
Cd1143     O1150   2.466       .  S
Cd1143     O1149   2.475       .  S
Cd1143     O1148   2.475       .  S
Cd1143     O1144   2.447       .  S
Cd1143     O1147   2.407       .  S
Cd1143     O1145   2.455       .  S
C1146      O1150   1.272       .  A
C1151      C1156   1.593       .  S
C1151      C1165   1.578       .  S
C1152      C1153   1.593       .  S
C1153      C1154   1.424       .  A
C1153      C1158   1.424       .  A
C1154      C1155   1.417       .  A
C1154      H1163   1.077       .  S
C1155      C1156   1.425       .  A
C1155      S1159   1.813       .  S
C1156      C1157   1.425       .  A
C1157      C1158   1.418       .  A
C1157      H1164   1.076       .  S
C1158      S1160   1.812       .  S
S1159      H1162   1.406       .  S
S1160      H1161   1.406       .  S
C1165      C1166   1.403       .  A
C1165      C1170   1.440       .  A
C1166      C1167   1.413       .  A
C1166      H1175   1.079       .  S
C1167      C1168   1.440       .  A
C1167      S1171   1.816       .  S
C1168      C1169   1.402       .  A
C1169      C1170   1.413       .  A
C1169      H1176   1.079       .  S
C1170      S1172   1.814       .  S
S1171      H1174   1.407       .  S
S1172      H1173   1.407       .  S
C1177      C1178   1.403       .  A
C1177      C1182   1.439       .  A
C1178      C1179   1.411       .  A
C1178      H1187   1.079       .  S
C1179      C1180   1.440       .  A
C1179      S1183   1.818       .  S
C1180      C1181   1.404       .  A
C1181      C1182   1.412       .  A
C1181      H1188   1.079       .  S
C1182      S1184   1.815       .  S
S1183      H1186   1.406       .  S
S1184      H1185   1.406       .  S
C1189      C1190   1.423       .  A
C1189      C1194   1.430       .  A
C1190      C1191   1.415       .  A
C1190      H1199   1.081       .  S
C1191      C1192   1.432       .  A
C1191      S1195   1.810       .  S
C1192      C1193   1.424       .  A
C1193      C1194   1.414       .  A
C1193      H1200   1.078       .  S
C1194      S1196   1.810       .  S
S1195      H1198   1.395       .  S
C1201      C1202   1.402       .  A
C1202      C1203   1.413       .  A
C1202      H1211   1.079       .  S
C1203      C1204   1.441       .  A
C1203      S1207   1.817       .  S
C1205      C1206   1.411   1_455  A
C1205      H1212   1.079       .  S
C1206      S1208   1.817       .  S
S1207      H1210   1.406       .  S
S1208      H1209   1.407       .  S
C1213      C1214   1.426       .  A
C1214      C1215   1.417       .  A
C1214      H1223   1.078       .  S
C1215      C1216   1.423   1_655  A
C1215      S1219   1.812       .  S
C1217      C1218   1.417       .  A
C1217      H1224   1.078       .  S
C1218      S1220   1.811       .  S
S1219      H1222   1.406       .  S
S1220      H1221   1.407       .  S
C1225      C1226   1.401       .  A
C1226      C1227   1.411       .  A
C1226      H1235   1.079       .  S
C1227      C1228   1.441       .  A
C1227      S1231   1.817       .  S
C1229      C1230   1.412   1_455  A
C1229      H1236   1.079       .  S
C1230      S1232   1.816       .  S
S1231      H1234   1.407       .  S
S1232      H1233   1.407       .  S
C1237      C1238   1.426       .  A
C1238      C1239   1.417       .  A
C1238      H1247   1.078       .  S
C1239      C1240   1.423   1_655  A
C1239      S1243   1.812       .  S
C1241      C1242   1.417       .  A
C1241      H1248   1.078       .  S
C1242      S1244   1.812       .  S
S1243      H1246   1.407       .  S
S1244      H1245   1.407       .  S
