geometry optimzed in LAMMPS
_audit_creation_date              2020-11-30 
_audit_creation_method            'lammps2cif' 
_symmetry_space_group_name_H-M    'P1' 
_symmetry_Int_Tables_number       1 
_symmetry_cell_setting            triclinic 
loop_ 
_symmetry_equiv_pos_as_xyz 
  x,y,z 
_cell_length_a                    33.07150992 
_cell_length_b                    33.09128243738055 
_cell_length_c                    33.07162644956438 
_cell_angle_alpha                 89.89063499563409 
_cell_angle_beta                  90.12155013265183 
_cell_angle_gamma                 92.07476707030631 
loop_ 
_atom_site_label 
_atom_site_type_symbol 
_atom_site_fract_x 
_atom_site_fract_y 
_atom_site_fract_z 
_atom_site_charge 
O1          O  0.53834029  0.04774512  0.86583819    -0.87600
O2          O  0.52898483  0.05993830  0.63530364    -0.87700
O3          O  0.61527318  0.03978248  0.74610022    -0.89400
O4          O  0.52589033  0.13260612  0.75512288    -0.88100
O5          O  0.45660672  0.13112628  0.75149776    -0.87700
O6          O  0.61210085  0.97052783  0.74631149    -0.89100
O7          O  0.56317136  0.09376386  0.68625419    -0.87600
O8          O  0.57774838  0.07681443  0.81572202    -0.87200
Zr9        Zr  0.54630211  0.06281310  0.75046493     2.84300
O10         O  0.48934215  0.06178437  0.70912556    -1.09200
O11         O  0.54345504  0.00549369  0.79064728    -1.09900
C12         C  0.56970726  0.06837834  0.85302749     1.05600
C13         C  0.55261783  0.08878062  0.64900674     1.05500
C14         C  0.63162245  0.00490685  0.74524355     1.08500
C15         C  0.49145872  0.14985803  0.75409495     1.06300
H16         H  0.56887390  0.00671857  0.69050155     0.31800
O17         O  0.54516732  0.00638185  0.70747395    -1.30100
H18         H  0.48923292  0.08661157  0.80874286     0.31500
O19         O  0.48868419  0.06301567  0.79161986    -1.31800
O20         O  0.44799910  0.95169823  0.63212336    -0.87600
O21         O  0.43119510  0.96641106  0.86461211    -0.89000
O22         O  0.56053679  0.92228419  0.68467671    -0.87600
O23         O  0.41439856  0.09011239  0.68419875    -0.87700
O24         O  0.40498291  0.08051288  0.81311009    -0.87400
O25         O  0.57263032  0.93255953  0.81301963    -0.87200
O26         O  0.44870532  0.87745076  0.75147157    -0.87600
O27         O  0.35852231  0.96844657  0.74519113    -0.87000
O28         O  0.51802729  0.87900115  0.74991530    -0.88100
O29         O  0.36126646  0.03762999  0.74945888    -0.87300
O30         O  0.53277744  0.95966221  0.63395033    -0.87600
O31         O  0.53805736  0.96292753  0.86399832    -0.87400
O32         O  0.44039818  0.05097429  0.86429916    -0.87000
O33         O  0.44622568  0.05658106  0.63348063    -0.87400
O34         O  0.41569144  0.91524978  0.68240451    -0.87700
O35         O  0.39419048  0.93487577  0.81418837    -0.89100
Zr36       Zr  0.48717641  0.00598128  0.66635688     2.83100
Zr37       Zr  0.48685848  0.00484368  0.83226499     2.83500
Zr38       Zr  0.54163234  0.94905124  0.74942563     2.84100
Zr39       Zr  0.43183286  0.06111096  0.74871414     2.83400
Zr40       Zr  0.42768280  0.94693249  0.74866937     2.84200
O41         O  0.43125830  0.00406476  0.78903359    -1.09600
O42         O  0.48499646  0.94952994  0.70845918    -1.09100
C43         C  0.42679633  0.92066164  0.64514404     1.05500
C44         C  0.39975469  0.94593956  0.85148416     1.08100
C45         C  0.55410524  0.93040600  0.64716016     1.05700
C46         C  0.42427871  0.08521039  0.64689958     1.06100
C47         C  0.41213417  0.07344602  0.85068532     1.05600
C48         C  0.56725400  0.94165699  0.85039671     1.05200
C49         C  0.48314810  0.86029628  0.75023347     1.05600
C50         C  0.34192560  0.00305074  0.74785135     1.05100
H51         H  0.48398089  0.92247849  0.80889165     0.31800
O52         O  0.48452138  0.94620452  0.79187393    -1.30700
H53         H  0.40458403  0.00423993  0.68888589     0.31800
O54         O  0.42818726  0.00425664  0.70607491    -1.32100
C55         C  0.67308383  0.24270578  0.50168935     0.85400
C56         C  0.65817466  0.21279238  0.53428010    -0.54800
C57         C  0.61708447  0.20949959  0.53858861     0.08300
C58         C  0.59432671  0.23594759  0.50832860     0.19300
C59         C  0.65151988  0.22752042  0.46312282    -0.55500
C60         C  0.61056168  0.22257024  0.46641167     0.08400
C61         C  0.65353033  0.28239146  0.51206121    -0.55100
C62         C  0.61266156  0.27935672  0.51608155     0.09000
H63         H  0.67891363  0.19494380  0.55171937     0.13500
H64         H  0.56087736  0.23381506  0.51095197    -0.00700
H65         H  0.66697838  0.21552352  0.43721925     0.13800
H66         H  0.67085431  0.31051042  0.51695733     0.13600
O67         O  0.56984194  0.10419921  0.31471369    -0.87600
O68         O  0.42335822  0.92285421  0.31216066    -0.87700
O69         O  0.45012652  0.05926106  0.36360775    -0.89400
O70         O  0.53822407  0.96323864  0.36362163    -0.88100
O71         O  0.57006089  0.92943757  0.31299785    -0.87700
O72         O  0.42105772  0.09596721  0.31296322    -0.89100
O73         O  0.45384562  0.96070900  0.36257754    -0.87600
O74         O  0.53722585  0.06734048  0.36455957    -0.87200
Zr75       Zr  0.49642684  0.01365298  0.33117322     2.84300
O76         O  0.49511295  0.95698283  0.28947658    -1.09200
O77         O  0.49734199  0.07012976  0.28905666    -1.09900
C78         C  0.55905214  0.09812972  0.35192383     1.05600
C79         C  0.43270531  0.92982844  0.34940677     1.05500
C80         C  0.42793185  0.08786771  0.35042696     1.08500
C81         C  0.56062350  0.93488468  0.35029954     1.06300
H82         H  0.41476462  0.01198858  0.30743553     0.31800
O83         O  0.43840556  0.01267795  0.29028648    -1.30100
H84         H  0.57852110  0.01581938  0.30836422     0.31500
O85         O  0.55489553  0.01554166  0.29109975    -1.31800
O86         O  0.40686182  0.94013111  0.18419895    -0.87600
O87         O  0.58821939  0.08692360  0.18417084    -0.89000
O88         O  0.37043918  0.04604994  0.25151805    -0.87600
O89         O  0.52837424  0.88793654  0.24600034    -0.87700
O90         O  0.62182388  0.98244743  0.24927813    -0.87400
O91         O  0.46321714  0.14047430  0.24870282    -0.87200
O92         O  0.44560510  0.05524305  0.13212798    -0.87600
O93         O  0.54327401  0.96870581  0.13450797    -0.87000
O94         O  0.41062373  0.08542257  0.18297866    -0.88100
O95         O  0.57787487  0.93650725  0.18472102    -0.87300
O96         O  0.36876145  0.97675870  0.25349056    -0.87600
O97         O  0.53255914  0.14223527  0.24739825    -0.87400
O98         O  0.62374766  0.05167226  0.25266670    -0.87000
O99         O  0.45920294  0.88630207  0.24180054    -0.87400
O100        O  0.44438187  0.97115938  0.13374985    -0.87700
O101        O  0.55249216  0.05410031  0.13367389    -0.89100
Zr102      Zr  0.43823436  0.95569253  0.24831958     2.83100
Zr103      Zr  0.55471914  0.07307350  0.24899691     2.83500
Zr104      Zr  0.44050977  0.06989657  0.24799874     2.84100
Zr105      Zr  0.55190633  0.95833937  0.24880179     2.83400
Zr106      Zr  0.49660336  0.01478626  0.16567526     2.84200
O107        O  0.55245927  0.01577637  0.20857505    -1.09600
O108        O  0.44011717  0.01295335  0.20760105    -1.09100
C109        C  0.41385468  0.94945320  0.14700608     1.05500
C110        C  0.58329288  0.07560988  0.14694794     1.08100
C111        C  0.35166120  0.01122954  0.25340144     1.05700
C112        C  0.49364357  0.86912743  0.24269057     1.06100
C113        C  0.64066217  0.01721240  0.25078812     1.05600
C114        C  0.49808038  0.15931680  0.24863436     1.05200
C115        C  0.41629420  0.07640969  0.14550339     1.05600
C116        C  0.57052528  0.94470830  0.14741018     1.05100
H117        H  0.49820858  0.09733868  0.18882476     0.31800
O118        O  0.49785823  0.07354604  0.20582894    -1.30700
H119        H  0.49457883  0.93295390  0.18899974     0.31800
O120        O  0.49511620  0.95654025  0.20621800    -1.32100
C121        C  0.25924629  0.83026385  0.00360758     0.85400
C122        C  0.27350040  0.85189542  0.96472974    -0.54800
C123        C  0.27732918  0.89300861  0.96744097     0.08300
C124        C  0.26441830  0.90912246  0.00948340     0.19300
C125        C  0.28947558  0.84591137  0.03568179    -0.55500
C126        C  0.29208096  0.88691523  0.03881367     0.08400
C127        C  0.21928024  0.84905033  0.01444798    -0.55100
C128        C  0.22151934  0.88994335  0.01815111     0.09000
H129        H  0.28590908  0.83638457  0.93909208     0.13500
H130        H  0.26665563  0.94257879  0.01223689    -0.00700
H131        H  0.30818104  0.82630763  0.05361126     0.13800
H132        H  0.19152899  0.83121827  0.01973064     0.13600
C133        C  0.71913793  0.82927263  0.99492830     0.85400
C134        C  0.69071141  0.83985646  0.02997311    -0.54800
C135        C  0.68283193  0.88021588  0.03293969     0.08300
C136        C  0.70411134  0.90607795  0.99994937     0.19300
C137        C  0.69784237  0.84632365  0.95748181    -0.55500
C138        C  0.68945621  0.88615993  0.96025003     0.08400
C139        C  0.75691562  0.85659384  0.00116476    -0.55100
C140        C  0.74916092  0.89658330  0.00401144     0.09000
H141        H  0.67692686  0.81684932  0.04943474     0.13500
H142        H  0.69913297  0.93896092  0.00117409    -0.00700
H143        H  0.68539046  0.82803866  0.93300557     0.13800
H144        H  0.78720540  0.84515430  0.00378293     0.13600
C145        C  0.67349130  0.78419851  0.49906880     0.85400
C146        C  0.65854309  0.80578131  0.46098599    -0.54800
C147        C  0.61809711  0.81371929  0.46088482     0.08300
C148        C  0.59626492  0.79843123  0.49960068     0.19300
C149        C  0.66065792  0.81218897  0.53357466    -0.55500
C150        C  0.62040607  0.81959611  0.53360873     0.08400
C151        C  0.64631699  0.74618611  0.50315172    -0.55100
C152        C  0.60613735  0.75342637  0.50384102     0.09000
H153        H  0.67948714  0.81742760  0.43830404     0.13500
H154        H  0.56334752  0.80353513  0.50079568    -0.00700
H155        H  0.68145359  0.82674354  0.55490253     0.13800
H156        H  0.65798173  0.71602977  0.50607376     0.13600
C157        C  0.26473476  0.19199984  0.99929685     0.85400
C158        C  0.28714239  0.17548564  0.03634573    -0.54800
C159        C  0.29507976  0.13519893  0.03473902     0.08300
C160        C  0.27938928  0.11497263  0.99541732     0.19300
C161        C  0.29207157  0.18083415  0.96375936    -0.55500
C162        C  0.29986675  0.14068251  0.96206973     0.08400
C163        C  0.22673541  0.16474268  0.99466024    -0.55100
C164        C  0.23421444  0.12467079  0.99222020     0.09000
H165        H  0.30067788  0.19496687  0.05918591     0.13500
H166        H  0.28497204  0.08221420  0.99296601    -0.00700
H167        H  0.30550832  0.20284284  0.94289151     0.13800
H168        H  0.19645859  0.17631367  0.99250207     0.13600
C169        C  0.72453278  0.19210936  0.99481505     0.85400
C170        C  0.69287513  0.17592091  0.96417934    -0.54800
C171        C  0.68993160  0.13485415  0.96185402     0.08300
C172        C  0.71853276  0.11333764  0.99087735     0.19300
C173        C  0.71129417  0.17177347  0.03468710    -0.55500
C174        C  0.70692875  0.13055515  0.03288181     0.08400
C175        C  0.76392368  0.17280554  0.98325143    -0.55100
C176        C  0.76127441  0.13190879  0.98072620     0.09000
H177        H  0.67358935  0.19517611  0.94651494     0.13500
H178        H  0.71617806  0.07982705  0.98908028    -0.00700
H179        H  0.69990348  0.18860550  0.06010341     0.13800
H180        H  0.79171767  0.19027321  0.97707351     0.13600
C181        C  0.31233235  0.23474604  0.50090039     0.85400
C182        C  0.32327772  0.20475785  0.46748113    -0.54800
C183        C  0.36350601  0.19786244  0.46522963     0.08300
C184        C  0.38957969  0.22104863  0.49647753     0.19300
C185        C  0.32991386  0.21583059  0.53935491    -0.55500
C186        C  0.37022779  0.20801161  0.53706303     0.08400
C187        C  0.33889914  0.27267758  0.49289464    -0.55100
C188        C  0.37913266  0.26575144  0.49049896     0.09000
H189        H  0.30122890  0.18954804  0.44783793     0.13500
H190        H  0.42242923  0.21555302  0.49418473    -0.00700
H191        H  0.31118944  0.20451684  0.56404286     0.13800
H192        H  0.32680551  0.30258838  0.48938511     0.13600
C193        C  0.31260562  0.77912700  0.49349057     0.85400
C194        C  0.33295662  0.79190699  0.53344671    -0.54800
C195        C  0.37430253  0.79485801  0.53235800     0.08300
C196        C  0.39163194  0.78206760  0.49073183     0.19300
C197        C  0.33040938  0.80974249  0.46280564    -0.55500
C198        C  0.37150529  0.81096107  0.46111525     0.08400
C199        C  0.33048706  0.73890223  0.48245949    -0.55100
C200        C  0.37148254  0.73995995  0.48044067     0.09000
H201        H  0.31611110  0.80451859  0.55822493     0.13500
H202        H  0.42520479  0.78313056  0.48926288    -0.00700
H203        H  0.31227684  0.82954035  0.44451314     0.13800
H204        H  0.31201964  0.71187158  0.47580134     0.13600
O205        O  0.86400559  0.76026715  0.45992421    -0.87600
O206        O  0.02875751  0.75837882  0.62016358    -0.87700
O207        O  0.90956158  0.69088054  0.56982120    -0.89400
O208        O  0.91804982  0.82146721  0.58151942    -0.88100
O209        O  0.94732420  0.87417741  0.54553456    -0.87700
O210        O  0.94580521  0.64344987  0.53608728    -0.89100
O211        O  0.95946799  0.75487704  0.62092720    -0.87600
O212        O  0.86551027  0.75829494  0.52926007    -0.87200
Zr213      Zr  0.93568717  0.75788992  0.55120608     2.84300
O214        O  0.99166164  0.80217075  0.55064190    -1.09200
O215        O  0.93606214  0.71836580  0.49327395    -1.09900
C216        C  0.84675166  0.75953792  0.49499982     1.05600
C217        C  0.99438282  0.75553813  0.63858646     1.05500
C218        C  0.91738843  0.65430481  0.55993649     1.08500
C219        C  0.92580788  0.85940891  0.57503639     1.06300
H220        H  0.99443504  0.70187290  0.57408844     0.31800
O221        O  0.99368925  0.71931203  0.55073348    -1.30100
H222        H  0.90962588  0.81623152  0.49489129     0.31500
O223        O  0.93350224  0.80035708  0.49421409    -1.31800
O224        O  0.11905989  0.77135060  0.52700760    -0.87600
O225        O  0.95646613  0.75812981  0.36549669    -0.89000
O226        O  0.04554580  0.65035434  0.53482394    -0.87600
O227        O  0.03077837  0.87919319  0.54744337    -0.87700
O228        O  0.94349247  0.87514036  0.44811607    -0.87400
O229        O  0.93941170  0.64331236  0.45354818    -0.87200
O230        O  0.08063687  0.70275194  0.42068412    -0.87600
O231        O  0.06136539  0.83270912  0.40440052    -0.87000
O232        O  0.04514859  0.64985848  0.45053414    -0.88100
O233        O  0.02988849  0.88090496  0.44152448    -0.87300
O234        O  0.07910342  0.70215497  0.56855390    -0.87600
O235        O  0.90235351  0.69219808  0.42326067    -0.87400
O236        O  0.91516031  0.82410477  0.40885083    -0.87000
O237        O  0.06318072  0.82981239  0.58215450    -0.87400
O238        O  0.11882644  0.77284721  0.45770783    -0.87700
O239        O  0.02585195  0.76196031  0.36649315    -0.89100
Zr240      Zr  0.04959754  0.76512091  0.54995604     2.83100
Zr241      Zr  0.93377494  0.75907346  0.43613086     2.83500
Zr242      Zr  0.99339321  0.67961932  0.49202962     2.84100
Zr243      Zr  0.99063876  0.84474139  0.49450050     2.83400
Zr244      Zr  0.04868981  0.76638032  0.43574014     2.84200
O245        O  0.99030939  0.80301855  0.43779378    -1.09600
O246        O  0.04878930  0.72520198  0.49242572    -1.09100
C247        C  0.13691827  0.77289286  0.49236413     1.05500
C248        C  0.99151015  0.75999969  0.34796631     1.08100
C249        C  0.07339865  0.66467391  0.55897916     1.05700
C250        C  0.05218541  0.86652075  0.57742326     1.06100
C251        C  0.92195828  0.86157753  0.41819890     1.05600
C252        C  0.90829380  0.65501511  0.43326118     1.05200
C253        C  0.07537578  0.66496702  0.43009264     1.05600
C254        C  0.05081701  0.86946055  0.41072026     1.05100
H255        H  0.99243199  0.70350323  0.41025448     0.31800
O256        O  0.99223585  0.72049753  0.43388586    -1.30700
H257        H  0.07346552  0.82687132  0.49330968     0.31800
O258        O  0.05021219  0.80831351  0.49327591    -1.32100
O259        O  0.86724583  0.25141126  0.47027417    -0.87600
O260        O  0.02853380  0.26483233  0.63097934    -0.87700
O261        O  0.92093158  0.19225398  0.59146639    -0.89400
O262        O  0.90776432  0.32202213  0.57935875    -0.88100
O263        O  0.94332275  0.37436898  0.54848629    -0.87700
O264        O  0.95434881  0.14348353  0.55699055    -0.89100
O265        O  0.95920390  0.26309968  0.62996836    -0.87600
O266        O  0.86687273  0.25275314  0.53947951    -0.87200
Zr267      Zr  0.93719200  0.25834292  0.56103318     2.84300
O268        O  0.99391708  0.30375677  0.56267641    -1.09200
O269        O  0.93548401  0.21600741  0.50419089    -1.09900
C270        C  0.84905938  0.25095037  0.50472637     1.05600
C271        C  0.99349402  0.26361675  0.64837173     1.05500
C272        C  0.93160307  0.15533276  0.58638208     1.08500
C273        C  0.91377446  0.35978064  0.57037568     1.06300
H274        H  0.99633100  0.20524833  0.58481231     0.31800
O275        O  0.99540171  0.22121174  0.56039626    -1.30100
H276        H  0.91259994  0.31422749  0.50452316     0.31500
O277        O  0.93730044  0.29964034  0.50447393    -1.31800
O278        O  0.12134865  0.26110388  0.53728571    -0.87600
O279        O  0.95775758  0.26526964  0.37789750    -0.89000
O280        O  0.04247148  0.14917766  0.55057867    -0.87600
O281        O  0.04731080  0.37922785  0.54496258    -0.87700
O282        O  0.94279786  0.37495341  0.46031115    -0.87400
O283        O  0.95337813  0.14456703  0.45135667    -0.87200
O284        O  0.07362489  0.20105361  0.41995835    -0.87600
O285        O  0.07605107  0.33082520  0.42628574    -0.87000
O286        O  0.04025271  0.14934113  0.45418667    -0.88100
O287        O  0.03977112  0.37975469  0.45744205    -0.87300
O288        O  0.07379621  0.20087083  0.58658336    -0.87600
O289        O  0.92015839  0.19411258  0.41750434    -0.87400
O290        O  0.90660891  0.32268384  0.42989677    -0.87000
O291        O  0.08357655  0.33072445  0.57711140    -0.87400
O292        O  0.12097244  0.26285570  0.46805901    -0.87700
O293        O  0.02702798  0.26665406  0.37685402    -0.89100
Zr294      Zr  0.05200608  0.26500362  0.56090075     2.83100
Zr295      Zr  0.93665790  0.25910534  0.44765958     2.83500
Zr296      Zr  0.99482656  0.17882409  0.50382851     2.84100
Zr297      Zr  0.99361721  0.34461160  0.50432854     2.83400
Zr298      Zr  0.05080375  0.26449475  0.44650460     2.84200
O299        O  0.99323748  0.30378962  0.44619046    -1.09600
O300        O  0.05206571  0.22303874  0.50383834    -1.09100
C301        C  0.13911505  0.26086844  0.50256036     1.05500
C302        C  0.99206076  0.26704747  0.35941684     1.08100
C303        C  0.06608039  0.16319557  0.57884111     1.05700
C304        C  0.07768380  0.36771079  0.56658197     1.06100
C305        C  0.91332050  0.36045605  0.43814438     1.05600
C306        C  0.93085707  0.15729421  0.42214461     1.05200
C307        C  0.06470680  0.16335368  0.42653989     1.05600
C308        C  0.06839105  0.36789237  0.43418661     1.05100
H309        H  0.99511394  0.20572448  0.42258316     0.31800
O310        O  0.99435032  0.22123097  0.44718616    -1.30700
H311        H  0.07554760  0.32201280  0.50235018     0.31800
O312        O  0.05107611  0.30532387  0.50340134    -1.32100
C313        C  0.75861439  0.50329068  0.67351381     0.85400
C314        C  0.77656420  0.46430119  0.65716902    -0.54800
C315        C  0.78737929  0.46619223  0.61737366     0.08300
C316        C  0.77744505  0.50653126  0.59688162     0.19300
C317        C  0.79104774  0.53621062  0.66282497    -0.55500
C318        C  0.80071027  0.53816605  0.62270139     0.08400
C319        C  0.72284304  0.51156481  0.64588592    -0.55100
C320        C  0.73252962  0.51339211  0.60596583     0.09000
H321        H  0.78603144  0.43979210  0.67636803     0.13500
H322        H  0.78491802  0.50733764  0.56417309    -0.00700
H323        H  0.80507991  0.55621703  0.68517751     0.13800
H324        H  0.69244825  0.51607141  0.65704132     0.13600
C325        C  0.22132854  0.52058768  0.68351130     0.85400
C326        C  0.19359752  0.55421670  0.66955843    -0.54800
C327        C  0.19023232  0.55829029  0.62843732     0.08300
C328        C  0.21517777  0.52727676  0.60504796     0.19300
C329        C  0.20307002  0.48268941  0.66277024    -0.55500
C330        C  0.19904939  0.48591920  0.62190929     0.08400
C331        C  0.26165662  0.52961772  0.66258536    -0.55100
C332        C  0.25905325  0.53345868  0.62180890     0.09000
H333        H  0.17633687  0.57148341  0.69085895     0.13500
H334        H  0.21356825  0.52952903  0.57165826    -0.00700
H335        H  0.18942425  0.45725572  0.67915052     0.13800
H336        H  0.29014274  0.53296974  0.67891662     0.13600
C337        C  0.81444221  0.01512495  0.26704784     0.85400
C338        C  0.82273477  0.98194545  0.29835335    -0.54800
C339        C  0.86270489  0.97788337  0.30681072     0.08300
C340        C  0.89093879  0.00778881  0.28396476     0.19300
C341        C  0.83488062  0.05325475  0.28569180    -0.55500
C342        C  0.87468753  0.04924266  0.29542555     0.08400
C343        C  0.84025583  0.00511566  0.23033512    -0.55100
C344        C  0.88018203  0.00131816  0.23904767     0.09000
H345        H  0.79908165  0.96322732  0.31251604     0.13500
H346        H  0.92358434  0.00490387  0.29087773    -0.00700
H347        H  0.81846158  0.07896562  0.29611813     0.13800
H348        H  0.82796068  0.00142716  0.20000877     0.13600
C349        C  0.80571171  0.00143039  0.72407872     0.85400
C350        C  0.82696968  0.04039129  0.70827375    -0.54800
C351        C  0.86815756  0.03887382  0.70502805     0.08300
C352        C  0.88440193  0.99777884  0.71970499     0.19300
C353        C  0.82013442  0.96884103  0.69497329    -0.55500
C354        C  0.86112664  0.96695059  0.69271599     0.08400
C355        C  0.82574487  0.99251663  0.76447405    -0.55100
C356        C  0.86655119  0.99006478  0.76290072     0.09000
H357        H  0.81037655  0.06505932  0.69547365     0.13500
H358        H  0.91779864  0.99584763  0.71788352    -0.00700
H359        H  0.79994952  0.95001816  0.67640604     0.13800
H360        H  0.80866946  0.98779384  0.79225181     0.13600
C361        C  0.76670255  0.50201416  0.31304138     0.85400
C362        C  0.78301357  0.54036232  0.33452906    -0.54800
C363        C  0.78583854  0.53744765  0.37568574     0.08300
C364        C  0.76985495  0.49564314  0.39188084     0.19300
C365        C  0.79484254  0.46916501  0.32820377    -0.55500
C366        C  0.79641659  0.46576061  0.36930196     0.08400
C367        C  0.72578939  0.49189347  0.33238783    -0.55100
C368        C  0.72668523  0.48814672  0.37324338     0.09000
H369        H  0.79699242  0.56568843  0.31833317     0.13500
H370        H  0.77117642  0.49272365  0.42531337    -0.00700
H371        H  0.81325682  0.45132114  0.30834374     0.13800
H372        H  0.69811123  0.48762080  0.31485996     0.13600
C373        C  0.22684735  0.51875748  0.32270310     0.85400
C374        C  0.19391039  0.48655756  0.33327926    -0.54800
C375        C  0.18450441  0.48489655  0.37318904     0.08300
C376        C  0.20830198  0.51543554  0.39950761     0.19300
C377        C  0.20973150  0.55817060  0.33956725    -0.55500
C378        C  0.19923476  0.55639568  0.37969983     0.08400
C379        C  0.26258551  0.50959060  0.35025073    -0.55100
C380        C  0.25298089  0.50767887  0.39025503     0.09000
H381        H  0.17902082  0.46681152  0.31117684     0.13500
H382        H  0.20096652  0.51323180  0.43220034    -0.00700
H383        H  0.20121143  0.58310024  0.32050623     0.13800
H384        H  0.29280286  0.50443406  0.33897215     0.13600
C385        C  0.17691292  0.01620777  0.27053136     0.85400
C386        C  0.16650353  0.05078161  0.29926713    -0.54800
C387        C  0.12595012  0.05702487  0.30350151     0.08300
C388        C  0.09941766  0.02752063  0.27741186     0.19300
C389        C  0.15269204  0.97945422  0.28755820    -0.55500
C390        C  0.11228733  0.98523280  0.29207345     0.08400
C391        C  0.15634904  0.02605634  0.23060299    -0.55100
C392        C  0.11627527  0.03262893  0.23358784     0.09000
H393        H  0.18982065  0.06696398  0.31649026     0.13500
H394        H  0.06639061  0.03169349  0.27912375    -0.00700
H395        H  0.16615421  0.95263163  0.29959789     0.13800
H396        H  0.17256231  0.02830208  0.20206522     0.13600
C397        C  0.16784416  0.00820506  0.73173352     0.85400
C398        C  0.14615266  0.97102055  0.71251963    -0.54800
C399        C  0.10641759  0.97624307  0.70303901     0.08300
C400        C  0.09157957  0.01823155  0.71474479     0.19300
C401        C  0.16070959  0.04216753  0.70112113    -0.55500
C402        C  0.12107145  0.04734651  0.69254521     0.08400
C403        C  0.14225899  0.01835479  0.76853788    -0.55100
C404        C  0.10252457  0.02361785  0.75986666     0.09000
H405        H  0.16154911  0.94469393  0.70214562     0.13500
H406        H  0.05922280  0.02282091  0.70760142    -0.00700
H407        H  0.18487213  0.06019595  0.68691703     0.13800
H408        H  0.15455629  0.02097341  0.79895911     0.13600
O409        O  0.74307165  0.63785238  0.95846013    -0.87600
O410        O  0.74694997  0.47533068  0.11931784    -0.87700
O411        O  0.68030943  0.58836113  0.07794055    -0.89400
O412        O  0.80992583  0.59486229  0.06980114    -0.88100
O413        O  0.85835308  0.56039664  0.03570331    -0.87700
O414        O  0.62835125  0.55488239  0.04424357    -0.89100
O415        O  0.74801516  0.54449778  0.12020714    -0.87600
O416        O  0.74421009  0.63798500  0.02779138    -0.87200
Zr417      Zr  0.74426817  0.56802113  0.05004292     2.84300
O418        O  0.78461329  0.51119708  0.05026935    -1.09200
O419        O  0.70293721  0.56937431  0.99231865    -1.09900
C420        C  0.74332566  0.65588199  0.99310648     1.05600
C421        C  0.74893353  0.50955591  0.13776947     1.05500
C422        C  0.64255063  0.57879760  0.07225481     1.08500
C423        C  0.84675707  0.58835755  0.05989262     1.06300
H424        H  0.68582456  0.51179028  0.07481425     0.31800
O425        O  0.70127159  0.51149414  0.05013933    -1.30100
H426        H  0.80134641  0.59180017  0.99288459     0.31500
O427        O  0.78458462  0.56735930  0.99249089    -1.31800
O428        O  0.73555515  0.38509804  0.02781288    -0.87600
O429        O  0.74359604  0.54368953  0.86478452    -0.89000
O430        O  0.62560369  0.46692007  0.04339015    -0.87600
O431        O  0.85612348  0.46083196  0.03567387    -0.87700
O432        O  0.86069824  0.56206069  0.94995710    -0.87400
O433        O  0.62975741  0.55874236  0.94472931    -0.87200
O434        O  0.67177636  0.43822601  0.90618291    -0.87600
O435        O  0.80241427  0.42383643  0.91764729    -0.87000
O436        O  0.62317708  0.47191226  0.94067366    -0.88100
O437        O  0.85460325  0.45984793  0.94827889    -0.87300
O438        O  0.67556643  0.43719733  0.08027358    -0.87600
O439        O  0.68086244  0.58841646  0.90656267    -0.87400
O440        O  0.81181660  0.59837105  0.91840833    -0.87000
O441        O  0.80454610  0.42767889  0.07003520    -0.87400
O442        O  0.73257996  0.38458736  0.95863621    -0.87700
O443        O  0.74060873  0.47439300  0.86613246    -0.89100
Zr444      Zr  0.74022278  0.45458175  0.04971458     2.83100
Zr445      Zr  0.74491171  0.56836042  0.93471524     2.83500
Zr446      Zr  0.65906060  0.51181143  0.99323629     2.84100
Zr447      Zr  0.82467404  0.51067224  0.99153205     2.83400
Zr448      Zr  0.73853542  0.45388780  0.93582881     2.84200
O449        O  0.78395466  0.51047414  0.93302948    -1.09600
O450        O  0.69687088  0.45285650  0.99322275    -1.09100
C451        C  0.73361095  0.36698393  0.99339403     1.05500
C452        C  0.74135625  0.50857474  0.84749237     1.08100
C453        C  0.63843900  0.44587554  0.07363309     1.05700
C454        C  0.84215203  0.43336988  0.06047614     1.06100
C455        C  0.84900834  0.59232640  0.92847890     1.05600
C456        C  0.64322935  0.58084349  0.91493650     1.05200
C457        C  0.63497204  0.44945736  0.91116175     1.05600
C458        C  0.84024166  0.43005351  0.92664404     1.05100
H459        H  0.68534718  0.51246551  0.91243606     0.31800
O460        O  0.70141100  0.51183646  0.93678365    -1.30700
H461        H  0.79497375  0.42980048  0.99288382     0.31800
O462        O  0.78010264  0.45431627  0.99242033    -1.32100
O463        O  0.25073715  0.63690827  0.96905364    -0.87600
O464        O  0.24142168  0.47591525  0.13067817    -0.87700
O465        O  0.18329254  0.59679718  0.07877302    -0.89400
O466        O  0.31289113  0.58039197  0.09034759    -0.88100
O467        O  0.36116061  0.54917797  0.05301503    -0.87700
O468        O  0.13024109  0.56165560  0.04870948    -0.89100
O469        O  0.24556256  0.54520836  0.12960918    -0.87600
O470        O  0.25226262  0.63661033  0.03829296    -0.87200
Zr471      Zr  0.24661945  0.56659609  0.06021172     2.84300
O472        O  0.28364522  0.50846576  0.05819160    -1.09200
O473        O  0.20453897  0.56727761  0.00423833    -1.09900
C474        C  0.25234332  0.65469486  0.00369065     1.05600
C475        C  0.24415283  0.51098945  0.14816819     1.05500
C476        C  0.14536707  0.59105927  0.07032272     1.08500
C477        C  0.34967699  0.57038581  0.08360997     1.06300
H478        H  0.18441010  0.51033502  0.08662266     0.31800
O479        O  0.20097522  0.51018820  0.06264414    -1.30100
H480        H  0.30652834  0.59112414  0.00251376     0.31500
O481        O  0.28814242  0.56783806  0.00268847    -1.31800
O482        O  0.24085654  0.38293589  0.03563766    -0.87600
O483        O  0.23902090  0.54703178  0.87698649    -0.89000
O484        O  0.12452335  0.45780994  0.04467218    -0.87600
O485        O  0.35467423  0.46210885  0.04877301    -0.87700
O486        O  0.35921289  0.54933768  0.94917264    -0.87400
O487        O  0.12946020  0.56379612  0.96283266    -0.87200
O488        O  0.17172662  0.42806366  0.92619030    -0.87600
O489        O  0.30071426  0.43417069  0.91396833    -0.87000
O490        O  0.12413934  0.46435298  0.95977471    -0.88100
O491        O  0.35328915  0.46370408  0.94999292    -0.87300
O492        O  0.17360583  0.42002528  0.07390948    -0.87600
O493        O  0.18096037  0.59665979  0.92806231    -0.87400
O494        O  0.30925845  0.58206123  0.91559713    -0.87000
O495        O  0.30406767  0.43034551  0.08579030    -0.87400
O496        O  0.23850514  0.38332231  0.96633742    -0.87700
O497        O  0.23628952  0.47782428  0.87552466    -0.89100
Zr498      Zr  0.23977270  0.45209669  0.06010831     2.83100
Zr499      Zr  0.24436942  0.56749377  0.94677800     2.83500
Zr500      Zr  0.15962455  0.51140524  0.00484057     2.84100
Zr501      Zr  0.32490618  0.50844563  0.00116205     2.83400
Zr502      Zr  0.23822340  0.45370406  0.94505791     2.84200
O503        O  0.28208935  0.50987963  0.94523753    -1.09600
O504        O  0.19867856  0.45418323  0.00316366    -1.09100
C505        C  0.24006932  0.36517227  0.00087240     1.05500
C506        C  0.23688973  0.51290909  0.85831424     1.08100
C507        C  0.13641807  0.42654152  0.06457377     1.05700
C508        C  0.34155514  0.43857716  0.07745185     1.06100
C509        C  0.34610476  0.57132587  0.91990270     1.05600
C510        C  0.14353005  0.59139663  0.93825140     1.05200
C511        C  0.13524043  0.43608533  0.93588667     1.05600
C512        C  0.33865579  0.44164630  0.92069749     1.05100
H513        H  0.18157716  0.51221337  0.92237250     0.31800
O514        O  0.19904748  0.51141535  0.94584329    -1.30700
H515        H  0.29669171  0.42754624  0.00112742     0.31800
O516        O  0.28074263  0.45146455  0.00186403    -1.32100
C517        C  0.99867127  0.74013066  0.81435881     0.85400
C518        C  0.03205959  0.71185846  0.82803765    -0.54800
C519        C  0.03648428  0.70831951  0.86913596     0.08300
C520        C  0.00608554  0.73355006  0.89281477     0.19300
C521        C  0.96061332  0.72247813  0.83553787    -0.55500
C522        C  0.96445771  0.71780004  0.87634531     0.08400
C523        C  0.00846179  0.78021433  0.83539641    -0.55100
C524        C  0.01264801  0.77737465  0.87610881     0.09000
H525        H  0.04910462  0.69461796  0.80652941     0.13500
H526        H  0.00867370  0.73188063  0.92619277    -0.00700
H527        H  0.93490592  0.70897381  0.81949694     0.13800
H528        H  0.01209523  0.80872533  0.81918239     0.13600
C529        C  0.98715171  0.27666764  0.82223503     0.85400
C530        C  0.94823625  0.29513532  0.83810086    -0.54800
C531        C  0.94938883  0.30568660  0.87801158     0.08300
C532        C  0.98955284  0.29528856  0.89887909     0.19300
C533        C  0.02017304  0.30857555  0.83324689    -0.55500
C534        C  0.02166475  0.31825849  0.87327432     0.08400
C535        C  0.99478291  0.24072463  0.84983962    -0.55100
C536        C  0.99624470  0.25034614  0.88981926     0.09000
H537        H  0.92440946  0.30506326  0.81836330     0.13500
H538        H  0.99028886  0.30249450  0.93161946    -0.00700
H539        H  0.04054691  0.32237180  0.81108192     0.13800
H540        H  0.99931256  0.21036967  0.83863850     0.13600
C541        C  0.48655319  0.68603196  0.76442194     0.85400
C542        C  0.44910959  0.66485521  0.78339003    -0.54800
C543        C  0.45362063  0.62501821  0.79259073     0.08300
C544        C  0.49535033  0.60948466  0.78078357     0.19300
C545        C  0.52055365  0.67795447  0.79498989    -0.55500
C546        C  0.52518629  0.63804152  0.80309308     0.08400
C547        C  0.49629938  0.66054489  0.72738841    -0.55100
C548        C  0.50110065  0.62070214  0.73592944     0.09000
H549        H  0.42329763  0.68075971  0.79420405     0.13500
H550        H  0.49936438  0.57696560  0.78749832    -0.00700
H551        H  0.53919142  0.70165865  0.80916679     0.13800
H552        H  0.49950787  0.67302356  0.69709677     0.13600
C553        C  0.49641272  0.69382176  0.22554191     0.85400
C554        C  0.53085505  0.68179505  0.19732934    -0.54800
C555        C  0.53590255  0.64095782  0.19412735     0.08300
C556        C  0.50544450  0.61579541  0.22003319     0.19300
C557        C  0.45910378  0.67035228  0.20865982    -0.55500
C558        C  0.46378629  0.62978253  0.20465903     0.08400
C559        C  0.50549590  0.67358610  0.26589751    -0.55100
C560        C  0.51097997  0.63322825  0.26352684     0.09000
H561        H  0.54815633  0.70413727  0.17986441     0.13500
H562        H  0.50882099  0.58261170  0.21863924    -0.00700
H563        H  0.43298886  0.68436133  0.19570755     0.13800
H564        H  0.50861247  0.69025944  0.29409681     0.13600
C565        C  0.98597023  0.28443502  0.18443005     0.85400
C566        C  0.02430560  0.30054236  0.16262922    -0.54800
C567        C  0.02042622  0.30385925  0.12169619     0.08300
C568        C  0.97823642  0.28875135  0.10590388     0.19300
C569        C  0.95316399  0.31306730  0.17016006    -0.55500
C570        C  0.94859538  0.31541838  0.12906022     0.08400
C571        C  0.97511972  0.24393598  0.16473358    -0.55100
C572        C  0.97085977  0.24545738  0.12399455     0.09000
H573        H  0.05026891  0.31409281  0.17826681     0.13500
H574        H  0.97524977  0.28991165  0.07249971    -0.00700
H575        H  0.93636829  0.33132690  0.19104854     0.13800
H576        H  0.97115552  0.21600544  0.18188301     0.13600
C577        C  0.99976728  0.74538988  0.17307359     0.85400
C578        C  0.96678102  0.71362989  0.16143543    -0.54800
C579        C  0.96488104  0.70459238  0.12119263     0.08300
C580        C  0.99779358  0.72697662  0.09623188     0.19300
C581        C  0.03883170  0.72691817  0.15746490    -0.55500
C582        C  0.03766427  0.71632691  0.11765946     0.08400
C583        C  0.99250391  0.78148548  0.14541208    -0.55100
C584        C  0.99114479  0.77193317  0.10534670     0.09000
H585        H  0.94723420  0.69886622  0.18369373     0.13500
H586        H  0.99740422  0.72020229  0.06340782    -0.00700
H587        H  0.06293534  0.71706601  0.17701341     0.13800
H588        H  0.98734484  0.81169817  0.15665122     0.13600
C589        C  0.48712134  0.32488230  0.77145023     0.85400
C590        C  0.52500711  0.34879529  0.78627162    -0.54800
C591        C  0.52029026  0.38947087  0.79067997     0.08300
C592        C  0.47764504  0.40284364  0.77768328     0.19300
C593        C  0.45420133  0.33632054  0.80170306    -0.55500
C594        C  0.44924641  0.37690545  0.80497108     0.08400
C595        C  0.47569416  0.34513503  0.73169508    -0.55100
C596        C  0.47034510  0.38551774  0.73427598     0.09000
H597        H  0.55174061  0.33473408  0.79765568     0.13500
H598        H  0.47342114  0.43587476  0.78035223    -0.00700
H599        H  0.43693515  0.31426967  0.81965790     0.13800
H600        H  0.47201378  0.32857199  0.70348634     0.13600
C601        C  0.49653687  0.33337050  0.23054185     0.85400
C602        C  0.46165549  0.34156465  0.20111506    -0.54800
C603        C  0.45745866  0.38146396  0.19199226     0.08300
C604        C  0.48896445  0.40968798  0.21284534     0.19300
C605        C  0.53375303  0.35313974  0.20947035    -0.55500
C606        C  0.52959660  0.39274179  0.19970812     0.08400
C607        C  0.48876113  0.35991796  0.26733191    -0.55100
C608        C  0.48458175  0.39970185  0.25819345     0.09000
H609        H  0.44300507  0.31755842  0.18750004     0.13500
H610        H  0.48614659  0.44232772  0.20609608    -0.00700
H611        H  0.55893542  0.33666817  0.19782400     0.13800
H612        H  0.48617238  0.34810670  0.29793506     0.13600
O613        O  0.55981914  0.41412196  0.55614371    -0.87600
O614        O  0.45379509  0.49354011  0.37147497    -0.87700
O615        O  0.47312297  0.38306223  0.46059120    -0.89400
O616        O  0.58650279  0.45211984  0.42533169    -0.88100
O617        O  0.60973174  0.51791948  0.43368917    -0.87700
O618        O  0.42202932  0.39546736  0.50558053    -0.89100
O619        O  0.49565463  0.44115318  0.38499833    -0.87600
O620        O  0.55149411  0.39354888  0.49020635    -0.87200
Zr621      Zr  0.51650335  0.44503689  0.45509431     2.84300
O622        O  0.51585693  0.51118761  0.43069159    -1.09200
O623        O  0.49254028  0.44292165  0.52207102    -1.09900
C624        C  0.56239135  0.38793721  0.52693255     1.05600
C625        C  0.47326959  0.46179649  0.36137680     1.05500
C626        C  0.44165485  0.37231084  0.48185947     1.08500
C627        C  0.61405285  0.48128016  0.42227576     1.06300
H628        H  0.43229981  0.45107127  0.44128779     0.31800
O629        O  0.44988316  0.46807870  0.45788467    -1.30100
H630        H  0.58480085  0.47521049  0.49662664     0.31500
O631        O  0.55806571  0.48596402  0.49622643    -1.31800
O632        O  0.42176175  0.60416925  0.43977776    -0.87600
O633        O  0.53164671  0.52757070  0.62304992    -0.89000
O634        O  0.36451178  0.47277859  0.48493050    -0.87600
O635        O  0.55122454  0.57895503  0.39976463    -0.87700
O636        O  0.62025921  0.54647499  0.51232412    -0.87400
O637        O  0.43408293  0.43853085  0.59631800    -0.87200
O638        O  0.39708212  0.56734943  0.56507778    -0.87600
O639        O  0.51164383  0.63671605  0.53227753    -0.87000
O640        O  0.37518739  0.50074229  0.56089581    -0.88100
O641        O  0.56483127  0.62298658  0.49025387    -0.87300
O642        O  0.37906400  0.51533955  0.43135478    -0.87600
O643        O  0.50028421  0.44806176  0.61646570    -0.87400
O644        O  0.60538787  0.50392705  0.56585878    -0.87000
O645        O  0.48457421  0.57131683  0.38045504    -0.87400
O646        O  0.43267657  0.62601121  0.50495153    -0.87700
O647        O  0.49013864  0.58022470  0.60908062    -0.89100
Zr648      Zr  0.44992950  0.53503296  0.43328732     2.83100
Zr649      Zr  0.53435604  0.48422077  0.56268439     2.83500
Zr650      Zr  0.42683274  0.46613677  0.52553767     2.84100
Zr651      Zr  0.55871710  0.55228954  0.47050560     2.83400
Zr652      Zr  0.46849607  0.57471703  0.53929815     2.84200
O653        O  0.53479991  0.55099387  0.53763033    -1.09600
O654        O  0.42691622  0.53238935  0.49985739    -1.09100
C655        C  0.42002135  0.63079946  0.46869608     1.05500
C656        C  0.51275781  0.55976937  0.63268949     1.08100
C657        C  0.35479649  0.49315179  0.45301537     1.05700
C658        C  0.52157992  0.58211488  0.37395239     1.06100
C659        C  0.62976570  0.52626959  0.54438622     1.05600
C660        C  0.46343161  0.43625640  0.62267624     1.05200
C661        C  0.37002356  0.53797468  0.56956635     1.05600
C662        C  0.54410118  0.64682507  0.51224846     1.05100
H663        H  0.45825618  0.50987871  0.59203641     0.31800
O664        O  0.46862641  0.50889138  0.56481279    -1.30700
H665        H  0.49416954  0.60307058  0.46155061     0.31800
O666        O  0.49314811  0.57607289  0.47268082    -1.32100
O667        O  0.08568718  0.94081272  0.05762680    -0.87600
O668        O  0.01019556  0.05150507  0.87439583    -0.87700
O669        O  0.04821818  0.91528902  0.93101106    -0.89400
O670        O  0.11805557  0.02924204  0.96272819    -0.88100
O671        O  0.10471161  0.08247759  0.00479031    -0.87700
O672        O  0.98192131  0.89319928  0.93806552    -0.89100
O673        O  0.06135747  0.00792376  0.88737455    -0.87600
O674        O  0.10684165  0.94976683  0.99191445    -0.87200
Zr675      Zr  0.05592741  0.98621525  0.95734381     2.84300
O676        O  0.03281936  0.05266450  0.95920027    -1.09200
O677        O  0.01352300  0.94537154  0.99752845    -1.09900
C678        C  0.11206931  0.93829764  0.02853738     1.05600
C679        C  0.04176167  0.03181491  0.86424809     1.05500
C680        C  0.01882274  0.88810076  0.92804340     1.08500
C681        C  0.12827463  0.06183966  0.98244275     1.06300
H682        H  0.99081273  0.97653077  0.90461074     0.31800
O683        O  0.99006330  0.98693046  0.93184075    -1.30100
H684        H  0.08472095  0.01211439  0.03486896     0.31500
O685        O  0.05760024  0.01104425  0.02401319    -1.31800
O686        O  0.89591930  0.07847534  0.94154367    -0.87600
O687        O  0.97434782  0.97240899  0.12567546    -0.89000
O688        O  0.91878338  0.95326572  0.90131249    -0.87600
O689        O  0.02851667  0.13856563  0.98465413    -0.87700
O690        O  0.06229646  0.06970262  0.09648229    -0.87400
O691        O  0.95296535  0.88347455  0.01224744    -0.87200
O692        O  0.86443603  0.99307195  0.03557666    -0.87600
O693        O  0.93523242  0.10611213  0.07094431    -0.87000
O694        O  0.87720218  0.94080826  0.99211534    -0.88100
O695        O  0.00149796  0.12826398  0.06337614    -0.87300
O696        O  0.92979920  0.01909865  0.88067294    -0.87600
O697        O  0.99509531  0.89797749  0.06621887    -0.87400
O698        O  0.05258887  0.00367712  0.11704010    -0.79800
O699        O  0.98566373  0.12392256  0.93129408    -0.87400
O700        O  0.87536039  0.07074608  0.00757433    -0.87700
O701        O  0.92244660  0.01491523  0.11225977    -0.89100
Zr702      Zr  0.96605839  0.05297271  0.93436347     2.83100
Zr703      Zr  0.01632727  0.96859377  0.06413773     2.83500
Zr704      Zr  0.94734875  0.94582497  0.97180250     2.84100
Zr705      Zr  0.03453321  0.07681444  0.02616484     2.83400
Zr706      Zr  0.92696295  0.03578763  0.04217555     2.84200
O707        O  0.99315216  0.03474229  0.06660854    -1.09600
O708        O  0.92469950  0.01165837  0.97529066    -1.09100
C709        C  0.86978249  0.08136728  0.97078618     1.05500
C710        C  0.94266591  0.99200540  0.13575765     1.08100
C711        C  0.91703579  0.98253050  0.87478318     1.05700
C712        C  0.00825440  0.14817174  0.95263409     1.06100
C713        C  0.06456508  0.04049713  0.12287685     1.05600
C714        C  0.97309496  0.87373243  0.04428954     1.05200
C715        C  0.85388699  0.96109248  0.01494059     1.05600
C716        C  0.96479524  0.13319056  0.07428097     1.05100
H717        H  0.93221692  0.95171826  0.05600505     0.31800
O718        O  0.94942323  0.96908411  0.03940861    -1.30700
H719        H  0.95761249  0.10354608  0.00026726     0.31800
O720        O  0.96813833  0.07673732  0.00073477    -1.32100
C721        C  0.47569731  0.42871293  0.28936983    -0.14300
C722        C  0.47118384  0.44745856  0.32030064    -0.15900
C723        C  0.45991791  0.40769972  0.69762394    -0.14300
C724        C  0.45616959  0.42052482  0.66326095    -0.15900
C725        C  0.98011577  0.80170364  0.07559220    -0.14300
C726        C  0.97297322  0.83222584  0.05720013    -0.15900
C727        C  0.95778606  0.17337502  0.08980462    -0.14300
C728        C  0.96127110  0.20797968  0.10219131    -0.15900
C729        C  0.52290578  0.61136959  0.29975177    -0.14300
C730        C  0.52833310  0.59824586  0.33365710    -0.15900
C731        C  0.51093288  0.59255462  0.70455625    -0.14300
C732        C  0.51543046  0.57432046  0.67345893    -0.15900
C733        C  0.00480499  0.22005836  0.91984637    -0.14300
C734        C  0.00957541  0.18938790  0.93883611    -0.15900
C735        C  0.02240224  0.81385807  0.89930410    -0.14300
C736        C  0.02604992  0.84796764  0.91278567    -0.15900
C737        C  0.08981765  0.41208541  0.88102706    -0.14400
C738        C  0.10406438  0.40843188  0.92054430     0.07700
C739        C  0.09153009  0.37554446  0.94463848    -0.14400
C740        C  0.06472133  0.34609923  0.92920240    -0.14400
C741        C  0.05003448  0.34949911  0.88959027     0.07700
C742        C  0.06255537  0.38293176  0.86569390    -0.14400
H743        H  0.09995713  0.43723324  0.86213431     0.11700
H744        H  0.10334320  0.37219233  0.97502000     0.11700
H745        H  0.05632670  0.32030965  0.94794486     0.11700
H746        H  0.05118398  0.38676666  0.83527698     0.11700
C747        C  0.11707853  0.35425164  0.08187084    -0.14400
C748        C  0.10565241  0.39459266  0.07645104     0.07700
C749        C  0.06483782  0.40349509  0.08199523    -0.14400
C750        C  0.03664895  0.37329153  0.09445519    -0.14400
C751        C  0.04815112  0.33318425  0.10025620     0.07700
C752        C  0.08869322  0.32397662  0.09373436    -0.14400
H753        H  0.14817582  0.34611868  0.07733288     0.11700
H754        H  0.05503937  0.43416436  0.07839229     0.11700
H755        H  0.00641152  0.38192412  0.10197325     0.11700
H756        H  0.09867074  0.29363203  0.09924687     0.11700
C757        C  0.13318381  0.66102768  0.09511973    -0.14400
C758        C  0.11766145  0.62229188  0.08437486     0.07700
C759        C  0.07555158  0.61520266  0.08386111    -0.14400
C760        C  0.04965844  0.64616584  0.09366477    -0.14400
C761        C  0.06513413  0.68507280  0.10313717     0.07700
C762        C  0.10716671  0.69204770  0.10446281    -0.14400
H763        H  0.16548889  0.66768869  0.09553183     0.11700
H764        H  0.06260930  0.58566447  0.07619647     0.11700
H765        H  0.01764350  0.63914512  0.09541039     0.11700
H766        H  0.11981513  0.72147696  0.11295308     0.11700
C767        C  0.12353912  0.63746616  0.88260149    -0.14400
C768        C  0.11529404  0.62024594  0.92064227     0.07700
C769        C  0.08209328  0.63344886  0.94271309    -0.14400
C770        C  0.05734638  0.66304755  0.92674170    -0.14400
C771        C  0.06481724  0.67951043  0.88801645     0.07700
C772        C  0.09870282  0.66665097  0.86650852    -0.14400
H773        H  0.14934490  0.62831293  0.86516982     0.11700
H774        H  0.07569770  0.62141528  0.97260384     0.11700
H775        H  0.03185791  0.67204539  0.94455438     0.11700
H776        H  0.10652080  0.67927651  0.83725281     0.11700
C777        C  0.40673669  0.41543311  0.90312020    -0.14400
C778        C  0.36719160  0.42443740  0.89153755     0.07700
C779        C  0.35504653  0.41768547  0.85116756    -0.14400
C780        C  0.38204366  0.40276468  0.82289671    -0.14400
C781        C  0.42134114  0.39379189  0.83460596     0.07700
C782        C  0.43341383  0.39956406  0.87496345    -0.14400
H783        H  0.41676916  0.42009877  0.93400874     0.11700
H784        H  0.32483652  0.42463094  0.84124796     0.11700
H785        H  0.37225197  0.39800423  0.79193450     0.11700
H786        H  0.46344741  0.39177473  0.88464735     0.11700
C787        C  0.38429949  0.61388252  0.82060805    -0.14400
C788        C  0.42533633  0.60459622  0.82145412     0.07700
C789        C  0.43994049  0.58190666  0.85397417    -0.14400
C790        C  0.41460125  0.57144954  0.88653396    -0.14400
C791        C  0.37421309  0.58338298  0.88689428     0.07700
C792        C  0.35923696  0.60389892  0.85302715    -0.14400
H793        H  0.37188337  0.63043654  0.79545976     0.11700
H794        H  0.47131290  0.57386635  0.85525180     0.11700
H795        H  0.42674510  0.55448572  0.91152075     0.11700
H796        H  0.32799015  0.61250555  0.85139532     0.11700
C797        C  0.39562894  0.60131215  0.18493352    -0.14400
C798        C  0.43674777  0.60731279  0.17567183     0.07700
C799        C  0.44941214  0.60056140  0.13568687    -0.14400
C800        C  0.42156023  0.58789930  0.10569514    -0.14400
C801        C  0.38019773  0.58290576  0.11482562     0.07700
C802        C  0.36773966  0.58925419  0.15499181    -0.14400
H803        H  0.38484852  0.60754170  0.21511105     0.11700
H804        H  0.48035451  0.60740990  0.12697339     0.11700
H805        H  0.43211263  0.58356189  0.07508475     0.11700
H806        H  0.33618513  0.58520804  0.16331139     0.11700
C807        C  0.43704111  0.42922897  0.13782901    -0.14400
C808        C  0.42767657  0.39545283  0.16221235     0.07700
C809        C  0.39008593  0.37482728  0.15742326    -0.14400
C810        C  0.36232778  0.38797320  0.12892207    -0.14400
C811        C  0.37195240  0.42165181  0.10443940     0.07700
C812        C  0.40969801  0.44188220  0.10890322    -0.14400
H813        H  0.46556126  0.44597279  0.14071545     0.11700
H814        H  0.38171734  0.34911263  0.17629433     0.11700
H815        H  0.33320366  0.37211794  0.12637760     0.11700
H816        H  0.41762156  0.46843940  0.09099565     0.11700
C817        C  0.62220741  0.43412607  0.14609993    -0.14400
C818        C  0.60944051  0.43334944  0.10542597     0.07700
C819        C  0.56923056  0.42202127  0.09636032    -0.14400
C820        C  0.54268348  0.41019136  0.12743487    -0.14400
C821        C  0.55554737  0.41108890  0.16798299     0.07700
C822        C  0.59544308  0.42314544  0.17710134    -0.14400
H823        H  0.65299208  0.44337187  0.15396376     0.11700
H824        H  0.55882257  0.42099146  0.06529476     0.11700
H825        H  0.51270204  0.39861523  0.11962645     0.11700
H826        H  0.60610456  0.42301713  0.20809728     0.11700
C827        C  0.62308402  0.63242056  0.12046931    -0.14400
C828        C  0.61418497  0.59501855  0.10200611     0.07700
C829        C  0.58097642  0.57130888  0.11589857    -0.14400
C830        C  0.55669065  0.58520452  0.14721509    -0.14400
C831        C  0.56455848  0.62352952  0.16460520     0.07700
C832        C  0.59866440  0.64647442  0.15135218    -0.14400
H833        H  0.64913322  0.65084894  0.11104493     0.11700
H834        H  0.57432849  0.54166153  0.10315302     0.11700
H835        H  0.53114660  0.56625006  0.15672979     0.11700
H836        H  0.60676800  0.67540489  0.16483801     0.11700
C837        C  0.62276384  0.60123694  0.84540325    -0.14400
C838        C  0.61328806  0.59704290  0.88673188     0.07700
C839        C  0.57443415  0.60616246  0.90011285    -0.14400
C840        C  0.54580791  0.62004145  0.87280425    -0.14400
C841        C  0.55538966  0.62392127  0.83173567     0.07700
C842        C  0.59382946  0.61434824  0.81803030    -0.14400
H843        H  0.65223731  0.59351845  0.83413730     0.11700
H844        H  0.56636878  0.60288543  0.93169610     0.11700
H845        H  0.51618068  0.62767909  0.88366026     0.11700
H846        H  0.60134778  0.61704419  0.78623836     0.11700
C847        C  0.56427177  0.44840124  0.88031051    -0.14400
C848        C  0.60509783  0.43744208  0.87888618     0.07700
C849        C  0.61829648  0.41702202  0.84430859    -0.14400
C850        C  0.59121616  0.40527591  0.81371372    -0.14400
C851        C  0.54984040  0.41304293  0.81667040     0.07700
C852        C  0.53695798  0.43643613  0.84940876    -0.14400
H853        H  0.55322088  0.46544271  0.90566116     0.11700
H854        H  0.64965836  0.40932402  0.84100392     0.11700
H855        H  0.60236076  0.38811833  0.78847332     0.11700
H856        H  0.50548175  0.44369037  0.85225338     0.11700
C857        C  0.90581287  0.39405390  0.05784682    -0.14400
C858        C  0.87049286  0.40452498  0.07830423     0.07700
C859        C  0.86003162  0.38390041  0.11417616    -0.14400
C860        C  0.88474145  0.35434070  0.12983916    -0.14400
C861        C  0.92050580  0.34422237  0.10991622     0.07700
C862        C  0.93018833  0.36372216  0.07314808    -0.14400
H863        H  0.91406267  0.40859198  0.02953135     0.11700
H864        H  0.83259363  0.39063906  0.13027210     0.11700
H865        H  0.87559304  0.33923409  0.15758054     0.11700
H866        H  0.95702952  0.35628847  0.05652325     0.11700
C867        C  0.90812101  0.39798953  0.92971923    -0.14400
C868        C  0.86869953  0.39885184  0.91360349     0.07700
C869        C  0.85524926  0.36699552  0.88832708    -0.14400
C870        C  0.88058487  0.33550765  0.87899001    -0.14400
C871        C  0.92041426  0.33524432  0.89400983     0.07700
C872        C  0.93367455  0.36656975  0.92003459    -0.14400
H873        H  0.91926496  0.42153509  0.94998509     0.11700
H874        H  0.82491624  0.36613288  0.87588585     0.11700
H875        H  0.86905820  0.31156027  0.85940003     0.11700
H876        H  0.96424123  0.36774939  0.93182132     0.11700
C877        C  0.92139231  0.61711927  0.91554711    -0.14400
C878        C  0.87975523  0.62442819  0.91687673     0.07700
C879        C  0.86738444  0.66405605  0.90933024    -0.14400
C880        C  0.89550724  0.69512693  0.89941819    -0.14400
C881        C  0.93684220  0.68762423  0.89679940     0.07700
C882        C  0.94953669  0.64827104  0.90504294    -0.14400
H883        H  0.93205451  0.58708771  0.92133228     0.11700
H884        H  0.83572047  0.67115665  0.91094392     0.11700
H885        H  0.88479794  0.72484794  0.89223365     0.11700
H886        H  0.98082603  0.64093619  0.90108414     0.11700
C887        C  0.91377744  0.62458969  0.05493595    -0.14400
C888        C  0.87757634  0.61689918  0.07603170     0.07700
C889        C  0.86920074  0.63973182  0.11047465    -0.14400
C890        C  0.89712838  0.66880094  0.12440612    -0.14400
C891        C  0.93417437  0.67560792  0.10431079     0.07700
C892        C  0.94163505  0.65404014  0.06868697    -0.14400
H893        H  0.92019815  0.60844317  0.02734923     0.11700
H894        H  0.84095301  0.63521906  0.12667480     0.11700
H895        H  0.88927475  0.68615153  0.15075430     0.11700
H896        H  0.96908463  0.65917226  0.05151733     0.11700
C897        C  0.05649966  0.03529053  0.82342883    -0.14300
C898        C  0.07430278  0.03211371  0.79178559    -0.15900
C899        C  0.09405344  0.04354536  0.19720623    -0.14300
C900        C  0.08091518  0.04777934  0.16308754    -0.15900
C901        C  0.24059563  0.55325799  0.25430193    -0.14400
C902        C  0.23754070  0.51793474  0.27790934     0.07700
C903        C  0.24292629  0.48046739  0.25871281    -0.14400
C904        C  0.24579784  0.47794449  0.21663756    -0.14400
C905        C  0.24496526  0.51304266  0.19290647     0.07700
C906        C  0.24420334  0.55082076  0.21240763    -0.14400
H907        H  0.23988031  0.58296060  0.26765371     0.11700
H908        H  0.24275082  0.45275830  0.27619454     0.11700
H909        H  0.24772456  0.44848527  0.20272343     0.11700
H910        H  0.24519283  0.57875622  0.19526430     0.11700
C911        C  0.28301321  0.49792752  0.42023960    -0.14300
C912        C  0.31346009  0.49232694  0.43940535    -0.15900
C913        C  0.75824875  0.46914631  0.24448950    -0.14400
C914        C  0.76333217  0.50480326  0.26723992     0.07700
C915        C  0.76118695  0.54222826  0.24696781    -0.14400
C916        C  0.75645046  0.54383295  0.20505785    -0.14400
C917        C  0.75297885  0.50814236  0.18233500     0.07700
C918        C  0.75357786  0.47074471  0.20261911    -0.14400
H919        H  0.75782763  0.43985343  0.25916807     0.11700
H920        H  0.76196517  0.57055699  0.26312014     0.11700
H921        H  0.75525497  0.57312179  0.19052957     0.11700
H922        H  0.75031806  0.44252059  0.18621369     0.11700
C923        C  0.65417199  0.47396959  0.40655711    -0.14300
C924        C  0.68891568  0.47788174  0.39446989    -0.15900
C925        C  0.88835629  0.97998824  0.79990196    -0.14300
C926        C  0.90092834  0.97563955  0.83429124    -0.15900
C927        C  0.90897184  0.99275141  0.20761014    -0.14300
C928        C  0.92782709  0.98914908  0.17661768    -0.15900
C929        C  0.23074729  0.55352999  0.75186576    -0.14400
C930        C  0.22599488  0.51785603  0.72906638     0.07700
C931        C  0.22834302  0.48041064  0.74912768    -0.14400
C932        C  0.23212425  0.47874541  0.79105383    -0.14400
C933        C  0.23440033  0.51444783  0.81385508     0.07700
C934        C  0.23426545  0.55188592  0.79375429    -0.14400
H935        H  0.23130440  0.58287833  0.73730617     0.11700
H936        H  0.22798179  0.45218785  0.73276780     0.11700
H937        H  0.23328795  0.44942794  0.80553674     0.11700
H938        H  0.23680914  0.58007002  0.81031580     0.11700
C939        C  0.32991273  0.54564601  0.58493141    -0.14300
C940        C  0.29577702  0.54248453  0.59859101    -0.15900
C941        C  0.74418291  0.46754000  0.74108369    -0.14400
C942        C  0.74745767  0.50332409  0.71808603     0.07700
C943        C  0.74144236  0.54037490  0.73764279    -0.14400
C944        C  0.73835194  0.54219949  0.77965795    -0.14400
C945        C  0.73988663  0.50679941  0.80288468     0.07700
C946        C  0.74062546  0.46929113  0.78298826    -0.14400
H947        H  0.74484376  0.43803857  0.72726270     0.11700
H948        H  0.74138093  0.56830635  0.72053912     0.11700
H949        H  0.73598546  0.57143206  0.79393881     0.11700
H950        H  0.73977402  0.44115218  0.79980558     0.11700
C951        C  0.67112110  0.52716272  0.55779702    -0.14300
C952        C  0.70213283  0.52212090  0.57613776    -0.15900
C953        C  0.95383142  0.27060323  0.29432855    -0.14400
C954        C  0.99102199  0.27028539  0.31488887     0.07700
C955        C  0.02701875  0.27353184  0.29249660    -0.14400
C956        C  0.02586420  0.27836435  0.25059486    -0.14400
C957        C  0.98860333  0.28044455  0.23010364     0.07700
C958        C  0.95269130  0.27509727  0.25248989    -0.14400
H959        H  0.92544839  0.26740419  0.31049319     0.11700
H960        H  0.05619625  0.27239511  0.30730231     0.11700
H961        H  0.05431360  0.27948973  0.23461142     0.11700
H962        H  0.92351033  0.27457341  0.23754576     0.11700
C963        C  0.95406899  0.26272007  0.71243295    -0.14400
C964        C  0.99172919  0.26225392  0.69282091     0.07700
C965        C  0.02698752  0.25956401  0.71610080    -0.14400
C966        C  0.02481093  0.26075652  0.75816274    -0.14400
C967        C  0.98757521  0.26620409  0.77762688     0.07700
C968        C  0.95197600  0.26426391  0.75431743    -0.14400
H969        H  0.92600674  0.26274450  0.69548387     0.11700
H970        H  0.05629778  0.25740516  0.70189728     0.11700
H971        H  0.05259944  0.25976871  0.77545514     0.11700
H972        H  0.92231692  0.26437698  0.76787849     0.11700
C973        C  0.84259006  0.37543984  0.41835824    -0.14400
C974        C  0.88346754  0.38851575  0.42201355     0.07700
C975        C  0.89500255  0.42787039  0.40980090    -0.14400
C976        C  0.86641121  0.45310137  0.39283537    -0.14400
C977        C  0.82573758  0.43989170  0.38931907     0.07700
C978        C  0.81389778  0.40105654  0.40237425    -0.14400
H979        H  0.83280315  0.34533621  0.42797444     0.11700
H980        H  0.92624706  0.43858202  0.41217014     0.11700
H981        H  0.87608780  0.48276999  0.38193564     0.11700
H982        H  0.78269111  0.39033231  0.39942179     0.11700
C983        C  0.88551279  0.42922424  0.57479277    -0.14400
C984        C  0.88226897  0.38764498  0.58361976     0.07700
C985        C  0.84629574  0.37195291  0.60133482    -0.14400
C986        C  0.81466665  0.39716967  0.61035615    -0.14400
C987        C  0.81811817  0.43867181  0.60189264     0.07700
C988        C  0.85370277  0.45445643  0.58376961    -0.14400
H989        H  0.91252542  0.44227971  0.56078112     0.11700
H990        H  0.84223722  0.33999161  0.60789936     0.11700
H991        H  0.78759794  0.38434089  0.62449092     0.11700
H992        H  0.85753208  0.48650975  0.57768548     0.11700
C993        C  0.10360210  0.44017228  0.57399262    -0.14400
C994        C  0.10965455  0.39854946  0.57834242     0.07700
C995        C  0.14762446  0.38637377  0.59247214    -0.14400
C996        C  0.17786122  0.41499046  0.60358406    -0.14400
C997        C  0.17118213  0.45654474  0.60069244     0.07700
C998        C  0.13380697  0.46876833  0.58555095    -0.14400
H999        H  0.07497143  0.45071629  0.56300703     0.11700
H1000       H  0.15392809  0.35461868  0.59546851     0.11700
H1001       H  0.20603111  0.40469184  0.61601448     0.11700
H1002       H  0.12673538  0.50028075  0.58517510     0.11700
C1003       C  0.13637368  0.38717867  0.40776451    -0.14400
C1004       C  0.09684601  0.39845791  0.41711949     0.07700
C1005       C  0.08629359  0.43886126  0.41202708    -0.14400
C1006       C  0.11488481  0.46733584  0.39738141    -0.14400
C1007       C  0.15435124  0.45579089  0.38897659     0.07700
C1008       C  0.16490073  0.41568635  0.39390765    -0.14400
H1009       H  0.14561536  0.35637911  0.41197567     0.11700
H1010       H  0.05603794  0.44823083  0.41891640     0.11700
H1011       H  0.10607723  0.49806033  0.39208467     0.11700
H1012       H  0.19526536  0.40652224  0.38708915     0.11700
C1013       C  0.08882531  0.14474519  0.64751852    -0.14400
C1014       C  0.08350069  0.13404961  0.60667412     0.07700
C1015       C  0.09171311  0.09475736  0.59401816    -0.14400
C1016       C  0.10482505  0.06650077  0.62203576    -0.14400
C1017       C  0.10842929  0.07701464  0.66292959     0.07700
C1018       C  0.10094367  0.11623293  0.67554332    -0.14400
H1019       H  0.08217051  0.17475474  0.65807568     0.11700
H1020       H  0.08791619  0.08599306  0.56266012     0.11700
H1021       H  0.11185769  0.03645885  0.61193974     0.11700
H1022       H  0.10416429  0.12459384  0.70707795     0.11700
C1023       C  0.89237575  0.13737841  0.64957001    -0.14400
C1024       C  0.91788599  0.12530068  0.61808080     0.07700
C1025       C  0.93171545  0.08546404  0.61917332    -0.14400
C1026       C  0.91849658  0.05806323  0.64955147    -0.14400
C1027       C  0.89058420  0.06957718  0.67911291     0.07700
C1028       C  0.87900481  0.11005878  0.67944072    -0.14400
H1029       H  0.88193452  0.16798219  0.65088468     0.11700
H1030       H  0.95243777  0.07530526  0.59635042     0.11700
H1031       H  0.92883031  0.02745449  0.64880998     0.11700
H1032       H  0.85830164  0.12036540  0.70222665     0.11700
C1033       C  0.92592199  0.08746205  0.39133063    -0.14400
C1034       C  0.91814700  0.12890321  0.38944240     0.07700
C1035       C  0.90020122  0.14419548  0.35413971    -0.14400
C1036       C  0.88845921  0.11858236  0.32257548    -0.14400
C1037       C  0.89436712  0.07697347  0.32527745     0.07700
C1038       C  0.91399618  0.06168079  0.35953046    -0.14400
H1039       H  0.94051238  0.07486144  0.41758997     0.11700
H1040       H  0.89485305  0.17612505  0.35079012     0.11700
H1041       H  0.87370549  0.13117279  0.29637744     0.11700
H1042       H  0.91851973  0.02958410  0.36258594     0.11700
C1043       C  0.12077114  0.14102422  0.38228764    -0.14400
C1044       C  0.08168080  0.13450308  0.39786544     0.07700
C1045       C  0.05665540  0.10364576  0.38142309    -0.14400
C1046       C  0.07030853  0.07985950  0.34971982    -0.14400
C1047       C  0.10994143  0.08526793  0.33460989     0.07700
C1048       C  0.13482845  0.11661379  0.35123104    -0.14400
H1049       H  0.14030020  0.16535588  0.39385558     0.11700
H1050       H  0.02586356  0.09894254  0.39203999     0.11700
H1051       H  0.04958720  0.05692374  0.33776936     0.11700
H1052       H  0.16501499  0.12308396  0.33993746     0.11700
C1053       C  0.03368078  0.75774436  0.24179540    -0.14400
C1054       C  0.99844097  0.75537336  0.21800505     0.07700
C1055       C  0.96081075  0.75952470  0.23733062    -0.14400
C1056       C  0.95818690  0.76074782  0.27949709    -0.14400
C1057       C  0.99335020  0.75983168  0.30322770     0.07700
C1058       C  0.03114101  0.75963753  0.28375015    -0.14400
H1059       H  0.06345627  0.75785267  0.22845866     0.11700
H1060       H  0.93309958  0.75974837  0.21983929     0.11700
H1061       H  0.92866032  0.76201084  0.29342981     0.11700
H1062       H  0.05907798  0.76033664  0.30091186     0.11700
C1063       C  0.03185222  0.75509439  0.70458693    -0.14400
C1064       C  0.99505057  0.75256371  0.68328747     0.07700
C1065       C  0.95884914  0.74760126  0.70519523    -0.14400
C1066       C  0.95945997  0.74403392  0.74727005    -0.14400
C1067       C  0.99641938  0.74492443  0.76858567     0.07700
C1068       C  0.03242348  0.75200096  0.74665943    -0.14400
H1069       H  0.06033070  0.75959548  0.68882263     0.11700
H1070       H  0.92986527  0.74645783  0.68986246     0.11700
H1071       H  0.93072941  0.74135948  0.76263110     0.11700
H1072       H  0.06128762  0.75451127  0.76215070     0.11700
C1073       C  0.10869291  0.59790756  0.43398132    -0.14400
C1074       C  0.10782945  0.63742611  0.41834505     0.07700
C1075       C  0.14031748  0.65157417  0.39417991    -0.14400
C1076       C  0.17141655  0.62609915  0.38376296    -0.14400
C1077       C  0.17106405  0.58584433  0.39743106     0.07700
C1078       C  0.14028381  0.57270088  0.42420294    -0.14400
H1079       H  0.08487601  0.58630040  0.45369354     0.11700
H1080       H  0.14151661  0.68226505  0.38272322     0.11700
H1081       H  0.19533744  0.63774077  0.36420952     0.11700
H1082       H  0.13941761  0.54240211  0.43641794     0.11700
C1083       C  0.14553579  0.57939866  0.57055737    -0.14400
C1084       C  0.16160277  0.58669913  0.60944573     0.07700
C1085       C  0.14838405  0.62041630  0.63103469    -0.14400
C1086       C  0.11906115  0.64502510  0.61490459    -0.14400
C1087       C  0.10204798  0.63662259  0.57683400     0.07700
C1088       C  0.11556549  0.60367222  0.55474124    -0.14400
H1089       H  0.15532094  0.55461369  0.55227942     0.11700
H1090       H  0.16084901  0.62834269  0.66032902     0.11700
H1091       H  0.10966545  0.67076964  0.63227939     0.11700
H1092       H  0.10366822  0.59727419  0.52484988     0.11700
C1093       C  0.85621533  0.61046153  0.55171883    -0.14400
C1094       C  0.88975144  0.62261085  0.57522586     0.07700
C1095       C  0.89486446  0.60637347  0.61385329    -0.14400
C1096       C  0.86617634  0.57840988  0.62916981    -0.14400
C1097       C  0.83185986  0.56679956  0.60612435     0.07700
C1098       C  0.82740523  0.58273249  0.56706246    -0.14400
H1099       H  0.85188552  0.62321024  0.52187118     0.11700
H1100       H  0.92072734  0.61564968  0.63219886     0.11700
H1101       H  0.87088716  0.56589340  0.65899764     0.11700
H1102       H  0.80114357  0.57471632  0.54878672     0.11700
C1103       C  0.87544031  0.58382920  0.43513248    -0.14400
C1104       C  0.87575646  0.62432677  0.42148506     0.07700
C1105       C  0.84273313  0.63639893  0.39800013    -0.14400
C1106       C  0.81191725  0.60873288  0.38643715    -0.14400
C1107       C  0.81277060  0.56777204  0.39769008     0.07700
C1108       C  0.84414910  0.55594096  0.42355577    -0.14400
H1109       H  0.89956684  0.57356006  0.45434341     0.11700
H1110       H  0.84089699  0.66734363  0.38766937     0.11700
H1111       H  0.78800041  0.61914182  0.36702344     0.11700
H1112       H  0.84554993  0.52483431  0.43335237     0.11700
C1113       C  0.06250619  0.94192338  0.38699469    -0.14400
C1114       C  0.06263575  0.90014552  0.37916972     0.07700
C1115       C  0.07368171  0.88755589  0.34013284    -0.14400
C1116       C  0.08637342  0.91568745  0.31062668    -0.14400
C1117       C  0.08837578  0.95723828  0.31914808     0.07700
C1118       C  0.07576581  0.97004382  0.35750893    -0.14400
H1119       H  0.05399721  0.95281836  0.41652098     0.11700
H1120       H  0.07328901  0.85573211  0.33250684     0.11700
H1121       H  0.09655569  0.90485414  0.28162172     0.11700
H1122       H  0.07897711  0.00141942  0.36592846     0.11700
C1123       C  0.87187325  0.91293590  0.40029299    -0.14400
C1124       C  0.90615146  0.89140661  0.39057698     0.07700
C1125       C  0.92618622  0.89849696  0.35386586    -0.14400
C1126       C  0.91205004  0.92697026  0.32680819    -0.14400
C1127       C  0.87739765  0.94820868  0.33595617     0.07700
C1128       C  0.85729683  0.94110337  0.37286913    -0.14400
H1129       H  0.85639775  0.90771866  0.42876570     0.11700
H1130       H  0.95288289  0.88205261  0.34627663     0.11700
H1131       H  0.92776574  0.93187005  0.29842204     0.11700
H1132       H  0.83077203  0.95767841  0.38065814     0.11700
C1133       C  0.90192110  0.87421556  0.64467286    -0.14400
C1134       C  0.90973142  0.88766829  0.60492958     0.07700
C1135       C  0.90274814  0.92803620  0.59475745    -0.14400
C1136       C  0.88738790  0.95413801  0.62365737    -0.14400
C1137       C  0.88019387  0.94057723  0.66330062     0.07700
C1138       C  0.88736890  0.90053884  0.67363947    -0.14400
H1139       H  0.90735321  0.84333832  0.65350162     0.11700
H1140       H  0.90822748  0.93907959  0.56433764     0.11700
H1141       H  0.88032923  0.98461907  0.61488917     0.11700
H1142       H  0.88109665  0.88954584  0.70394191     0.11700
C1143       C  0.05412840  0.93625637  0.60862145    -0.14400
C1144       C  0.06345775  0.89514320  0.61046779     0.07700
C1145       C  0.08121352  0.88041009  0.64606338    -0.14400
C1146       C  0.09181257  0.90640305  0.67769583    -0.14400
C1147       C  0.08524511  0.94790799  0.67465079     0.07700
C1148       C  0.06466536  0.96235492  0.64063201    -0.14400
H1149       H  0.03930550  0.94838254  0.58226256     0.11700
H1150       H  0.08751681  0.84869848  0.64947971     0.11700
H1151       H  0.10678326  0.89428106  0.70399572     0.11700
H1152       H  0.05841602  0.99406655  0.63783927     0.11700
C1153       C  0.24478926  0.77175486  0.52973394    -0.14400
C1154       C  0.26680064  0.77685308  0.49363662     0.07700
C1155       C  0.24547948  0.77774594  0.45679597    -0.14400
C1156       C  0.20335366  0.77711266  0.45630584    -0.14400
C1157       C  0.18153097  0.77427820  0.49261356     0.07700
C1158       C  0.20271844  0.77093504  0.52925004    -0.14400
H1159       H  0.25965857  0.76765194  0.55849081     0.11700
H1160       H  0.26142025  0.77934768  0.42824390     0.11700
H1161       H  0.18795784  0.77865712  0.42744475     0.11700
H1162       H  0.18684129  0.76724325  0.55769712     0.11700
C1163       C  0.39180134  0.70387138  0.46780073    -0.14300
C1164       C  0.40392578  0.67021229  0.46186540    -0.15900
C1165       C  0.24661178  0.24813833  0.53873513    -0.14400
C1166       C  0.26752012  0.24357555  0.50206021     0.07700
C1167       C  0.24630152  0.24893389  0.46562042    -0.14400
C1168       C  0.20477130  0.25490464  0.46570520    -0.14400
C1169       C  0.18356320  0.25708885  0.50234408     0.07700
C1170       C  0.20514376  0.25452777  0.53884264    -0.14400
H1171       H  0.26197543  0.24723135  0.56755849     0.11700
H1172       H  0.26172455  0.24770304  0.43683157     0.11700
H1173       H  0.18928482  0.25741854  0.43697672     0.11700
H1174       H  0.18996965  0.25710610  0.56765981     0.11700
C1175       C  0.42654505  0.33092146  0.47991292    -0.14300
C1176       C  0.40813947  0.29881130  0.48327106    -0.15900
C1177       C  0.72913377  0.25886977  0.95820667    -0.14400
C1178       C  0.72884581  0.23772318  0.99513780     0.07700
C1179       C  0.73456623  0.25961560  0.03122381    -0.14400
C1180       C  0.73646002  0.30165158  0.03059410    -0.14400
C1181       C  0.73312222  0.32263719  0.99387578     0.07700
C1182       C  0.73051623  0.30086031  0.95758038    -0.14400
H1183       H  0.72737945  0.24286980  0.92969430     0.11700
H1184       H  0.73798638  0.24465883  0.06002651     0.11700
H1185       H  0.74034866  0.31763072  0.05896917     0.11700
H1186       H  0.72932138  0.31615075  0.92864022     0.11700
C1187       C  0.83021821  0.09713620  0.96373523    -0.14300
C1188       C  0.79678774  0.11016302  0.96895510    -0.15900
C1189       C  0.25753722  0.25905883  0.03690027    -0.14400
C1190       C  0.25530618  0.23668820  0.00070229     0.07700
C1191       C  0.24324041  0.25652188  0.96519987    -0.14400
C1192       C  0.23741953  0.29816559  0.96514384    -0.14400
C1193       C  0.24262829  0.32070185  0.00087369     0.07700
C1194       C  0.25176635  0.30045685  0.03685048    -0.14400
H1195       H  0.26326448  0.24516755  0.06576307     0.11700
H1196       H  0.23942717  0.23992124  0.93717897     0.11700
H1197       H  0.22943882  0.31274011  0.93703753     0.11700
H1198       H  0.25509073  0.31666197  0.06515638     0.11700
C1199       C  0.20153788  0.09533663  0.98500604    -0.14300
C1200       C  0.16964334  0.07678099  0.98093247    -0.15900
C1201       C  0.74097624  0.77412988  0.53429403    -0.14400
C1202       C  0.71817815  0.77476829  0.49836633     0.07700
C1203       C  0.73728616  0.76459696  0.46191091    -0.14400
C1204       C  0.77888859  0.75873883  0.46079055    -0.14400
C1205       C  0.80214692  0.76168832  0.49631532     0.07700
C1206       C  0.78245978  0.76815386  0.53323147    -0.14400
H1207       H  0.72703325  0.77860032  0.56340565     0.11700
H1208       H  0.72027936  0.76188519  0.43399595     0.11700
H1209       H  0.79287063  0.75244072  0.43200849     0.11700
H1210       H  0.79920480  0.76949726  0.56139737     0.11700
C1211       C  0.55870093  0.68832889  0.51325527    -0.14300
C1212       C  0.57680253  0.72052641  0.50978030    -0.15900
C1213       C  0.74001597  0.76448761  0.02889917    -0.14400
C1214       C  0.72872118  0.78457532  0.99327898     0.07700
C1215       C  0.72723941  0.76240233  0.95691963    -0.14400
C1216       C  0.73313108  0.72095005  0.95685760    -0.14400
C1217       C  0.74127663  0.70045358  0.99295545     0.07700
C1218       C  0.74579344  0.72284551  0.02886811    -0.14400
H1219       H  0.74316745  0.78088384  0.05710722     0.11700
H1220       H  0.72187536  0.77649818  0.92808372     0.11700
H1221       H  0.73046392  0.70486006  0.92843459     0.11700
H1222       H  0.75307463  0.70813683  0.05710740     0.11700
C1223       C  0.78132174  0.92635942  0.01184045    -0.14300
C1224       C  0.81260815  0.94587978  0.01631532    -0.15900
C1225       C  0.24906096  0.76305845  0.03869214    -0.14400
C1226       C  0.25606403  0.78442798  0.00239595     0.07700
C1227       C  0.25995970  0.76231932  0.96635247    -0.14400
C1228       C  0.25934952  0.72032472  0.96703115    -0.14400
C1229       C  0.25392790  0.69919031  0.00351723     0.07700
C1230       C  0.24834354  0.72093644  0.03933931    -0.14400
H1231       H  0.24477430  0.77912342  0.06678067     0.11700
H1232       H  0.26280573  0.77658496  0.93715890     0.11700
H1233       H  0.26291660  0.70444105  0.93872604     0.11700
H1234       H  0.24317246  0.70547099  0.06785217     0.11700
C1235       C  0.15180943  0.92293838  0.03575516    -0.14300
C1236       C  0.18564447  0.91088718  0.03046891    -0.15900
C1237       C  0.28497098  0.97620494  0.26821087    -0.14400
C1238       C  0.30718222  0.01112877  0.25623503     0.07700
C1239       C  0.28655614  0.04643473  0.24762031    -0.14400
C1240       C  0.24476618  0.04712688  0.25194491    -0.14400
C1241       C  0.22235054  0.01272856  0.26532082     0.07700
C1242       C  0.24302042  0.97690385  0.27267484    -0.14400
H1243       H  0.30005161  0.94840569  0.27471791     0.11700
H1244       H  0.30269187  0.07371182  0.23764008     0.11700
H1245       H  0.22975881  0.07492741  0.24523228     0.11700
H1246       H  0.22756658  0.94914602  0.28171407     0.11700
C1247       C  0.70765417  0.05400826  0.25395218    -0.14400
C1248       C  0.68508951  0.01746171  0.25060490     0.07700
C1249       C  0.70542162  0.98114007  0.24698996    -0.14400
C1250       C  0.74739807  0.98118580  0.24949514    -0.14400
C1251       C  0.76983935  0.01729054  0.25707091     0.07700
C1252       C  0.74960787  0.05398961  0.25676973    -0.14400
H1253       H  0.69293733  0.08269199  0.25516323     0.11700
H1254       H  0.68896040  0.95252004  0.24305664     0.11700
H1255       H  0.76226675  0.95262160  0.24757123     0.11700
H1256       H  0.76559702  0.08289895  0.25893971     0.11700
C1257       C  0.40994619  0.91014068  0.41866010    -0.14400
C1258       C  0.41936503  0.89906428  0.37901682     0.07700
C1259       C  0.41680813  0.85800996  0.36789498    -0.14400
C1260       C  0.40404475  0.82862046  0.39585251    -0.14400
C1261       C  0.39309304  0.84007748  0.43487549     0.07700
C1262       C  0.39604314  0.88088557  0.44616013    -0.14400
H1263       H  0.41173330  0.94156002  0.42782564     0.11700
H1264       H  0.42451802  0.84870728  0.33755972     0.11700
H1265       H  0.40097446  0.79726909  0.38657979     0.11700
H1266       H  0.38608034  0.89028931  0.47573368     0.11700
C1267       C  0.60806911  0.88100106  0.36862675    -0.14400
C1268       C  0.57529536  0.90460280  0.37913680     0.07700
C1269       C  0.55404316  0.89556754  0.41488824    -0.14400
C1270       C  0.56629854  0.86444510  0.44032575    -0.14400
C1271       C  0.60047642  0.84206217  0.43087028     0.07700
C1272       C  0.62017916  0.84993837  0.39384144    -0.14400
H1273       H  0.62441100  0.88642016  0.34066927     0.11700
H1274       H  0.52760580  0.91217839  0.42293135     0.11700
H1275       H  0.54936848  0.85903241  0.46777849     0.11700
H1276       H  0.64528881  0.83237988  0.38408155     0.11700
C1277       C  0.40137276  0.10206489  0.41965439    -0.14400
C1278       C  0.41009838  0.11499442  0.38008103     0.07700
C1279       C  0.40296728  0.15516280  0.36888957    -0.14400
C1280       C  0.38808793  0.18214106  0.39691253    -0.14400
C1281       C  0.37972005  0.16927584  0.43630935     0.07700
C1282       C  0.38564947  0.12901897  0.44749998    -0.14400
H1283       H  0.40628437  0.07118551  0.42883286     0.11700
H1284       H  0.40975745  0.16603180  0.33864830     0.11700
H1285       H  0.38317870  0.21308862  0.38793920     0.11700
H1286       H  0.37788312  0.11843934  0.47757545     0.11700
C1287       C  0.53520341  0.26803211  0.23894785    -0.14400
C1288       C  0.49882995  0.28876135  0.24092767     0.07700
C1289       C  0.46313180  0.26680104  0.25143457    -0.14400
C1290       C  0.46288299  0.22478518  0.25493044    -0.14400
C1291       C  0.49865289  0.20392353  0.24914696     0.07700
C1292       C  0.53503818  0.22613857  0.24283474    -0.14400
H1293       H  0.56403803  0.28354857  0.23417503     0.11700
H1294       H  0.43491742  0.28204563  0.25495561     0.11700
H1295       H  0.43450072  0.20865096  0.26118674     0.11700
H1296       H  0.56341216  0.21111459  0.23970640     0.11700
C1297       C  0.52860023  0.80348939  0.24738351    -0.14400
C1298       C  0.49349540  0.82460110  0.23896318     0.07700
C1299       C  0.45853108  0.80281130  0.22631009    -0.14400
C1300       C  0.45872422  0.76086449  0.22174932    -0.14400
C1301       C  0.49406004  0.73956107  0.22973178     0.07700
C1302       C  0.52878980  0.76160992  0.24296257    -0.14400
H1303       H  0.55601912  0.81928283  0.25752173     0.11700
H1304       H  0.43094787  0.81820307  0.21959644     0.11700
H1305       H  0.43080250  0.74591026  0.21241337     0.11700
H1306       H  0.55634261  0.74621412  0.24982170     0.11700
C1307       C  0.65182958  0.10795797  0.13125675    -0.14400
C1308       C  0.61649892  0.08692486  0.11782295     0.07700
C1309       C  0.61446556  0.07513964  0.07689408    -0.14400
C1310       C  0.64564898  0.08624303  0.04979094    -0.14400
C1311       C  0.67955251  0.10957399  0.06284090     0.07700
C1312       C  0.68275769  0.11922976  0.10415491    -0.14400
H1313       H  0.65533482  0.11657233  0.16267598     0.11700
H1314       H  0.58833693  0.05806066  0.06551388     0.11700
H1315       H  0.64208239  0.07846053  0.01819701     0.11700
H1316       H  0.70858819  0.13704529  0.11519819     0.11700
C1317       C  0.60638485  0.94777088  0.08174453    -0.14400
C1318       C  0.59698021  0.92663958  0.11735516     0.07700
C1319       C  0.61647046  0.89059419  0.12583441    -0.14400
C1320       C  0.64450720  0.87564396  0.09870990    -0.14400
C1321       C  0.65403176  0.89672040  0.06277179     0.07700
C1322       C  0.63516101  0.93348834  0.05525303    -0.14400
H1323       H  0.59261463  0.97624831  0.07506966     0.11700
H1324       H  0.61025026  0.87411167  0.15359799     0.11700
H1325       H  0.65921643  0.84803179  0.10652055     0.11700
H1326       H  0.64200142  0.95167296  0.02890787     0.11700
C1327       C  0.39374854  0.91976255  0.08042282    -0.14400
C1328       C  0.38294779  0.93547776  0.11796165     0.07700
C1329       C  0.34180270  0.93773797  0.12821297    -0.14400
C1330       C  0.31180913  0.92386307  0.10140789    -0.14400
C1331       C  0.32277834  0.90688330  0.06455439     0.07700
C1332       C  0.36375225  0.90488882  0.05412230    -0.14400
H1333       H  0.42527112  0.91773699  0.07212760     0.11700
H1334       H  0.33293289  0.95020119  0.15701564     0.11700
H1335       H  0.28026072  0.92505041  0.10994136     0.11700
H1336       H  0.37243612  0.89114798  0.02588653     0.11700
C1337       C  0.37860054  0.07156319  0.07909369    -0.14400
C1338       C  0.38554922  0.09068496  0.11654259     0.07700
C1339       C  0.36004023  0.12159303  0.12815628    -0.14400
C1340       C  0.32937587  0.13409983  0.10264385    -0.14400
C1341       C  0.32352991  0.11668895  0.06419058     0.07700
C1342       C  0.34766936  0.08419750  0.05334580    -0.14400
H1343       H  0.39675644  0.04660264  0.06988666     0.11700
H1344       H  0.36373490  0.13635582  0.15719733     0.11700
H1345       H  0.31040802  0.15778018  0.11330925     0.11700
H1346       H  0.34358956  0.06899420  0.02468141     0.11700
C1347       C  0.73975991  0.25515135  0.53736657    -0.14400
C1348       C  0.71901207  0.24647245  0.50097339     0.07700
C1349       C  0.74182925  0.24065628  0.46572541    -0.14400
C1350       C  0.78389243  0.24158638  0.46728800    -0.14400
C1351       C  0.80442375  0.24890021  0.50388928     0.07700
C1352       C  0.78192517  0.25596106  0.53893488    -0.14400
H1353       H  0.72313008  0.26056519  0.56490477     0.11700
H1354       H  0.72804777  0.23577659  0.43653405     0.11700
H1355       H  0.80033018  0.23664408  0.43954942     0.11700
H1356       H  0.79683088  0.26242281  0.56750952     0.11700
C1357       C  0.57751763  0.15450294  0.45135652    -0.14400
C1358       C  0.59001316  0.19333328  0.43798773     0.07700
C1359       C  0.59234282  0.20035609  0.39612543    -0.14400
C1360       C  0.58290980  0.16936023  0.36844830    -0.14400
C1361       C  0.57071686  0.13033433  0.38181298     0.07700
C1362       C  0.56738878  0.12357383  0.42371070    -0.14400
H1363       H  0.57823982  0.14706921  0.48304542     0.11700
H1364       H  0.60316996  0.22953083  0.38485387     0.11700
H1365       H  0.58529849  0.17604671  0.33645565     0.11700
H1366       H  0.55818750  0.09399405  0.43520509     0.11700
C1367       C  0.59094932  0.31479554  0.52842192    -0.14300
C1368       C  0.57804860  0.34826427  0.53390848    -0.15900
C1369       C  0.27432061  0.96723355  0.74249937    -0.14400
C1370       C  0.29731996  0.00318215  0.74859331     0.07700
C1371       C  0.27723948  0.03931338  0.75485448    -0.14400
C1372       C  0.23523668  0.03993467  0.75187685    -0.14400
C1373       C  0.21242222  0.00470339  0.74166588     0.07700
C1374       C  0.23236081  0.96789165  0.73936192    -0.14400
H1375       H  0.28874577  0.93857489  0.73912246     0.11700
H1376       H  0.29397246  0.06736545  0.76104027     0.11700
H1377       H  0.22063188  0.06847268  0.75556751     0.11700
H1378       H  0.21627372  0.93934609  0.73484819     0.11700
C1379       C  0.69503275  0.96713058  0.73621180    -0.14400
C1380       C  0.67598556  0.00402868  0.74152270     0.07700
C1381       C  0.69965320  0.04003897  0.74219562    -0.14400
C1382       C  0.74127820  0.03936885  0.73616218    -0.14400
C1383       C  0.76017156  0.00273780  0.72841638     0.07700
C1384       C  0.73666111  0.96648875  0.73015129    -0.14400
H1385       H  0.67781435  0.93865839  0.73644169     0.11700
H1386       H  0.68607159  0.06885141  0.74742526     0.11700
H1387       H  0.75850036  0.06765983  0.73836419     0.11700
H1388       H  0.75044639  0.93749508  0.72696654     0.11700
C1389       C  0.38714648  0.14798655  0.63231073    -0.14400
C1390       C  0.41101900  0.11658708  0.61828566     0.07700
C1391       C  0.42507847  0.11811337  0.57821883    -0.14400
C1392       C  0.41448073  0.14971508  0.55255128    -0.14400
C1393       C  0.38873008  0.17973453  0.56609440     0.07700
C1394       C  0.37623362  0.17911536  0.60659912    -0.14400
H1395       H  0.37660855  0.14859227  0.66327554     0.11700
H1396       H  0.44430911  0.09499969  0.56669084     0.11700
H1397       H  0.42534180  0.14969287  0.52177235     0.11700
H1398       H  0.35720015  0.20233831  0.61825948     0.11700
C1399       C  0.54568418  0.13087501  0.58653573    -0.14400
C1400       C  0.56825530  0.11972372  0.62053083     0.07700
C1401       C  0.60451117  0.14109710  0.62946339    -0.14400
C1402       C  0.61911137  0.17151567  0.60383753    -0.14400
C1403       C  0.59786940  0.18138224  0.56852290     0.07700
C1404       C  0.55999506  0.16208587  0.56115818    -0.14400
H1405       H  0.51680498  0.11588335  0.57994515     0.11700
H1406       H  0.62194018  0.13398818  0.65615449     0.11700
H1407       H  0.64734314  0.18711264  0.61173316     0.11700
H1408       H  0.54184815  0.17009758  0.53533895     0.11700
C1409       C  0.58705063  0.86590280  0.63083669    -0.14400
C1410       C  0.57170483  0.90282104  0.61754719     0.07700
C1411       C  0.57212203  0.91190941  0.57604293    -0.14400
C1412       C  0.58784803  0.88464959  0.54852128    -0.14400
C1413       C  0.60285614  0.84792327  0.56211250     0.07700
C1414       C  0.60264908  0.83882673  0.60333537    -0.14400
H1415       H  0.58670852  0.85761269  0.66253212     0.11700
H1416       H  0.56064041  0.94009019  0.56491580     0.11700
H1417       H  0.58919826  0.89268183  0.51686435     0.11700
H1418       H  0.61436278  0.81061811  0.61415742     0.11700
C1419       C  0.43048267  0.88738234  0.57593995    -0.14400
C1420       C  0.41580777  0.88740415  0.61599325     0.07700
C1421       C  0.39283551  0.85330123  0.62928516    -0.14400
C1422       C  0.38272517  0.82150214  0.60294580    -0.14400
C1423       C  0.39513544  0.82255411  0.56230028     0.07700
C1424       C  0.42062056  0.85507548  0.54958008    -0.14400
H1425       H  0.44936357  0.91240438  0.56484210     0.11700
H1426       H  0.38189494  0.85132305  0.66008159     0.11700
H1427       H  0.36348329  0.79669509  0.61395276     0.11700
H1428       H  0.43149931  0.85646204  0.51881174     0.11700
C1429       C  0.52692627  0.21674259  0.76739547    -0.14400
C1430       C  0.49156494  0.19443940  0.75690883     0.07700
C1431       C  0.45580242  0.21506375  0.75013279    -0.14400
C1432       C  0.45514208  0.25684321  0.75490270    -0.14400
C1433       C  0.49012164  0.27932234  0.76658234     0.07700
C1434       C  0.52632475  0.25864519  0.77206596    -0.14400
H1435       H  0.55509690  0.20179346  0.77246687     0.11700
H1436       H  0.42809660  0.19892481  0.74137084     0.11700
H1437       H  0.42700444  0.27180365  0.74963750     0.11700
H1438       H  0.55458101  0.27399019  0.77962422     0.11700
C1439       C  0.44665206  0.79323342  0.75573714    -0.14400
C1440       C  0.48278366  0.81577719  0.74944211     0.07700
C1441       C  0.51861186  0.79533562  0.74251491    -0.14400
C1442       C  0.51873703  0.75329907  0.74477247    -0.14400
C1443       C  0.48336721  0.73079319  0.75502402     0.07700
C1444       C  0.44680758  0.75124108  0.75813176    -0.14400
H1445       H  0.41825150  0.80802493  0.75973099     0.11700
H1446       H  0.54679725  0.81179137  0.73617879     0.11700
H1447       H  0.54702706  0.73838053  0.74048864     0.11700
H1448       H  0.41803236  0.73559699  0.76265561     0.11700
C1449       C  0.34726635  0.10630150  0.86571674    -0.14400
C1450       C  0.38441906  0.09186843  0.87964972     0.07700
C1451       C  0.39370762  0.09440592  0.92100344    -0.14400
C1452       C  0.36628465  0.11102787  0.94777376    -0.14400
C1453       C  0.32906301  0.12445239  0.93369631     0.07700
C1454       C  0.31986485  0.12250801  0.89255363    -0.14400
H1455       H  0.33893646  0.10448120  0.83406578     0.11700
H1456       H  0.42215274  0.08391584  0.93254738     0.11700
H1457       H  0.37440608  0.11403084  0.97930643     0.11700
H1458       H  0.29127933  0.13301479  0.88134228     0.11700
C1459       C  0.33095267  0.91517490  0.86839795    -0.14400
C1460       C  0.36671702  0.93571156  0.88113323     0.07700
C1461       C  0.36939595  0.94810938  0.92193059    -0.14400
C1462       C  0.33840609  0.93777226  0.94962963    -0.14400
C1463       C  0.30406779  0.91469880  0.93725602     0.07700
C1464       C  0.30021769  0.90485262  0.89599737    -0.14400
H1465       H  0.32696537  0.90612880  0.83715328     0.11700
H1466       H  0.39587486  0.96503396  0.93275032     0.11700
H1467       H  0.34239588  0.94592324  0.98107480     0.11700
H1468       H  0.27407283  0.88721783  0.88542560     0.11700
C1469       C  0.63550880  0.91425435  0.86424750    -0.14400
C1470       C  0.59833318  0.92770387  0.87902556     0.07700
C1471       C  0.59219813  0.92882503  0.92093688    -0.14400
C1472       C  0.62227070  0.91614919  0.94735890    -0.14400
C1473       C  0.65953036  0.90358256  0.93257427     0.07700
C1474       C  0.66573025  0.90233373  0.89076925    -0.14400
H1475       H  0.64147738  0.91312688  0.83208984     0.11700
H1476       H  0.56382010  0.93847132  0.93326184     0.11700
H1477       H  0.61543174  0.91417299  0.97909819     0.11700
H1478       H  0.69379573  0.89158429  0.87867921     0.11700
C1479       C  0.64078215  0.07400679  0.87764487    -0.14400
C1480       C  0.59979792  0.08259344  0.88301153     0.07700
C1481       C  0.58836692  0.10575881  0.91618099    -0.14400
C1482       C  0.61785235  0.12203734  0.94240558    -0.14400
C1483       C  0.65889223  0.11418160  0.93653917     0.07700
C1484       C  0.67013772  0.08927025  0.90463223    -0.14400
H1485       H  0.65003355  0.05577592  0.85233614     0.11700
H1486       H  0.55692284  0.11255851  0.92080197     0.11700
H1487       H  0.60878299  0.14123742  0.96702948     0.11700
H1488       H  0.70168348  0.08307503  0.89967524     0.11700
loop_ 
_geom_bond_atom_site_label_1 
_geom_bond_atom_site_label_2 
_geom_bond_distance 
_geom_bond_site_symmetry_2 
_ccdc_geom_bond_type 
O1          Zr37   2.443       .  S
O1           C12   1.293       .  A
O2          Zr36   2.444       .  S
O2           C13   1.294       .  A
O3           Zr9   2.436       .  S
O3           C14   1.292       .  A
O4           Zr9   2.435       .  S
O4           C15   1.292       .  A
O5          Zr39   2.431       .  S
O5           C15   1.292       .  A
O6          Zr38   2.414       .  S
O6           C14   1.288   1_565  A
O7           Zr9   2.414       .  S
O7           C13   1.289       .  A
O8           Zr9   2.432       .  S
O8           C12   1.291       .  A
Zr9          O10   2.325       .  S
Zr9          O11   2.313       .  S
Zr9          O19   2.344       .  S
Zr9          O17   2.348       .  S
O10         Zr36   2.327       .  S
O10         Zr39   2.311       .  S
O11         Zr37   2.325       .  S
O11         Zr38   2.313   1_545  S
C12        C1480   1.469       .  S
C13        C1400   1.471       .  S
C14        C1380   1.474       .  S
C15        C1430   1.478       .  S
H16          O17   0.965       .  S
O17         Zr36   2.348       .  S
O17         Zr38   2.348   1_545  S
H18          O19   0.965       .  S
O19         Zr37   2.345       .  S
O19         Zr39   2.352       .  S
O20         Zr36   2.454   1_565  S
O20          C43   1.296       .  A
O21         Zr37   2.446   1_565  S
O21          C44   1.295       .  A
O22         Zr38   2.411       .  S
O22          C45   1.288       .  A
O23         Zr39   2.415       .  S
O23          C46   1.289       .  A
O24         Zr39   2.406       .  S
O24          C47   1.287       .  A
O25         Zr38   2.408       .  S
O25          C48   1.287       .  A
O26         Zr40   2.428       .  S
O26          C49   1.292       .  A
O27         Zr40   2.422       .  S
O27          C50   1.291   1_565  A
O28         Zr38   2.419       .  S
O28          C49   1.289       .  A
O29         Zr39   2.433       .  S
O29          C50   1.292       .  A
O30         Zr36   2.440   1_565  S
O30          C45   1.293       .  A
O31         Zr37   2.460   1_565  S
O31          C48   1.297       .  A
O32         Zr37   2.449       .  S
O32          C47   1.295       .  A
O33         Zr36   2.444       .  S
O33          C46   1.294       .  A
O34         Zr40   2.456       .  S
O34          C43   1.297       .  A
O35         Zr40   2.461       .  S
O35          C44   1.298       .  A
Zr36         O42   2.327   1_545  S
Zr36         O54   2.353       .  S
Zr37         O41   2.326       .  S
Zr37         O52   2.357   1_545  S
Zr38         O42   2.310       .  S
Zr38         O52   2.355       .  S
Zr39         O41   2.309       .  S
Zr39         O54   2.353       .  S
Zr40         O41   2.316   1_565  S
Zr40         O42   2.317       .  S
Zr40         O54   2.360   1_565  S
Zr40         O52   2.360       .  S
C43        C1420   1.499       .  S
C44        C1460   1.499       .  S
C45        C1410   1.475       .  S
C46        C1390   1.481       .  S
C47        C1450   1.475       .  S
C48        C1470   1.481       .  S
C49        C1440   1.473       .  S
C50        C1370   1.476       .  S
H51          O52   0.965       .  S
H53          O54   0.965       .  S
C55          C56   1.532       .  S
C55          C61   1.525       .  S
C55          C59   1.536       .  S
C55        C1348   1.520       .  S
C56          H63   1.085       .  S
C56          C57   1.367       .  D
C57          C58   1.541       .  S
C57        C1403   1.485       .  S
C58          C62   1.560       .  S
C58          C60   1.558       .  S
C58          H64   1.109       .  S
C59          H65   1.082       .  S
C59          C60   1.363       .  D
C60        C1358   1.495       .  S
C61          H66   1.087       .  S
C61          C62   1.358       .  D
C62        C1367   1.457       .  S
O67        Zr103   2.450       .  S
O67          C78   1.295       .  A
O68        Zr102   2.416       .  S
O68          C79   1.289       .  A
O69         Zr75   2.440       .  S
O69          C80   1.293       .  A
O70         Zr75   2.449   1_565  S
O70          C81   1.295       .  A
O71        Zr105   2.411       .  S
O71          C81   1.288       .  A
O72        Zr104   2.414       .  S
O72          C80   1.289       .  A
O73         Zr75   2.440   1_565  S
O73          C79   1.293       .  A
O74         Zr75   2.454       .  S
O74          C78   1.296       .  A
Zr75         O76   2.329   1_545  S
Zr75         O77   2.328       .  S
Zr75         O85   2.345       .  S
Zr75         O83   2.344       .  S
O76        Zr102   2.319       .  S
O76        Zr105   2.312       .  S
O77        Zr103   2.316       .  S
O77        Zr104   2.316       .  S
C78        C1361   1.495       .  S
C79        C1258   1.468       .  S
C80        C1278   1.470       .  S
C81        C1268   1.476       .  S
H82          O83   0.966       .  S
O83        Zr102   2.343   1_545  S
O83        Zr104   2.351       .  S
H84          O85   0.967       .  S
O85        Zr103   2.357       .  S
O85        Zr105   2.355   1_545  S
O86        Zr102   2.407       .  S
O86         C109   1.287       .  A
O87        Zr103   2.450       .  S
O87         C110   1.296       .  A
O88        Zr104   2.424       .  S
O88         C111   1.290       .  A
O89        Zr105   2.431       .  S
O89         C112   1.291       .  A
O90        Zr105   2.419       .  S
O90         C113   1.289   1_565  A
O91        Zr104   2.427       .  S
O91         C114   1.291       .  A
O92        Zr106   2.453       .  S
O92         C115   1.295       .  A
O93        Zr106   2.440   1_565  S
O93         C116   1.294       .  A
O94        Zr104   2.427       .  S
O94         C115   1.291       .  A
O95        Zr105   2.410       .  S
O95         C116   1.287       .  A
O96        Zr102   2.431       .  S
O96         C111   1.291   1_565  A
O97        Zr103   2.429       .  S
O97         C114   1.292       .  A
O98        Zr103   2.417       .  S
O98         C113   1.290       .  A
O99        Zr102   2.433       .  S
O99         C112   1.291       .  A
O100       Zr106   2.449   1_565  S
O100        C109   1.294       .  A
O101       Zr106   2.461       .  S
O101        C110   1.298       .  A
Zr102       O108   2.322   1_565  S
Zr102       O120   2.342       .  S
Zr103       O107   2.321       .  S
Zr103       O118   2.359       .  S
Zr104       O108   2.312       .  S
Zr104       O118   2.356       .  S
Zr105       O107   2.317   1_565  S
Zr105       O120   2.344       .  S
Zr106       O107   2.326       .  S
Zr106       O108   2.328       .  S
Zr106       O120   2.345   1_545  S
Zr106       O118   2.356       .  S
C109       C1328   1.464       .  S
C110       C1308   1.499       .  S
C111       C1238   1.474       .  S
C112       C1298   1.479       .  S
C113       C1248   1.469       .  S
C114       C1291   1.476       .  S
C115       C1338   1.484       .  S
C116       C1318   1.468       .  S
H117        O118   0.966       .  S
H119        O120   0.967       .  S
C121        C122   1.537   1_554  S
C121        C127   1.525       .  S
C121        C125   1.534       .  S
C121       C1226   1.517       .  S
C122        H129   1.081       .  S
C122        C123   1.365       .  D
C123        C124   1.556   1_556  S
C123       C1463   1.500       .  S
C124        C128   1.560       .  S
C124        C126   1.536       .  S
C124        H130   1.111       .  S
C125        H131   1.087       .  S
C125        C126   1.361       .  D
C126       C1331   1.464       .  S
C127        H132   1.087       .  S
C127        C128   1.358       .  D
C128       C1236   1.455       .  S
C133        C134   1.543   1_556  S
C133        C139   1.529   1_556  S
C133        C137   1.540       .  S
C133       C1214   1.525       .  S
C134        H141   1.084       .  S
C134        C135   1.374       .  D
C135        C136   1.541   1_554  S
C135       C1321   1.491       .  S
C136        C140   1.539   1_556  S
C136        C138   1.540       .  S
C136        H142   1.107   1_556  S
C137        H143   1.083       .  S
C137        C138   1.360       .  D
C138       C1473   1.478       .  S
C139        H144   1.087       .  S
C139        C140   1.360       .  D
C140       C1223   1.447       .  S
C145        C146   1.536       .  S
C145        C151   1.525       .  S
C145        C149   1.541       .  S
C145       C1202   1.522       .  S
C146        H153   1.083       .  S
C146        C147   1.372       .  D
C147        C148   1.547       .  S
C147       C1271   1.496       .  S
C148        C152   1.542       .  S
C148        C150   1.533       .  S
C148        H154   1.108       .  S
C149        H155   1.085       .  S
C149        C150   1.362       .  D
C150       C1413   1.466       .  S
C151        H156   1.087       .  S
C151        C152   1.359       .  D
C152       C1212   1.445       .  S
C157        C158   1.540   1_556  S
C157        C163   1.528       .  S
C157        C161   1.538       .  S
C157       C1190   1.523   1_556  S
C158        H165   1.080       .  S
C158        C159   1.369       .  D
C159        C160   1.544   1_554  S
C159       C1341   1.498       .  S
C160        C164   1.543       .  S
C160        C162   1.535       .  S
C160        H166   1.109       .  S
C161        H167   1.086       .  S
C161        C162   1.364       .  D
C162       C1453   1.464       .  S
C163        H168   1.087       .  S
C163        C164   1.360       .  D
C164       C1199   1.446       .  S
C169        C170   1.538       .  S
C169        C175   1.521       .  S
C169        C173   1.537   1_556  S
C169       C1178   1.511       .  S
C170        H177   1.087       .  S
C170        C171   1.361       .  D
C171        C172   1.538       .  S
C171       C1483   1.473       .  S
C172        C176   1.558       .  S
C172        C174   1.557   1_556  S
C172        H178   1.111       .  S
C173        H179   1.085       .  S
C173        C174   1.368       .  D
C174       C1311   1.496       .  S
C175        H180   1.087       .  S
C175        C176   1.356       .  D
C176       C1188   1.454       .  S
C181        C182   1.539       .  S
C181        C187   1.529       .  S
C181        C185   1.539       .  S
C181       C1166   1.521       .  S
C182        H189   1.086       .  S
C182        C183   1.360       .  D
C183        C184   1.533       .  S
C183       C1281   1.463       .  S
C184        C188   1.543       .  S
C184        C186   1.542       .  S
C184        H190   1.111       .  S
C185        H191   1.084       .  S
C185        C186   1.370       .  D
C186       C1393   1.486       .  S
C187        H192   1.087       .  S
C187        C188   1.361       .  D
C188       C1176   1.449       .  S
C193        C194   1.535       .  S
C193        C199   1.521       .  S
C193        C197   1.536       .  S
C193       C1154   1.514       .  S
C194        H201   1.084       .  S
C194        C195   1.368       .  D
C195        C196   1.558       .  S
C195       C1423   1.500       .  S
C196        C200   1.560       .  S
C196        C198   1.535       .  S
C196        H202   1.111       .  S
C197        H203   1.086       .  S
C197        C198   1.360       .  D
C198       C1261   1.463       .  S
C199        H204   1.087       .  S
C199        C200   1.357       .  D
C200       C1163   1.454       .  S
O205       Zr241   2.441       .  S
O205        C216   1.294       .  A
O206       Zr240   2.431       .  S
O206        C217   1.291   1_455  A
O207       Zr213   2.429       .  S
O207        C218   1.290       .  A
O208       Zr213   2.423       .  S
O208        C219   1.290       .  A
O209       Zr243   2.443       .  S
O209        C219   1.293       .  A
O210       Zr242   2.429       .  S
O210        C218   1.290       .  A
O211       Zr213   2.438       .  S
O211        C217   1.292       .  A
O212       Zr213   2.431       .  S
O212        C216   1.292       .  A
Zr213       O214   2.319       .  S
Zr213       O215   2.322       .  S
Zr213       O223   2.351       .  S
Zr213       O221   2.342       .  S
O214       Zr240   2.312   1_655  S
O214       Zr243   2.329       .  S
O215       Zr241   2.321       .  S
O215       Zr242   2.327       .  S
C216       C1205   1.480       .  S
C217       C1064   1.482       .  S
C218       C1094   1.457       .  S
C219       C1134   1.475       .  S
H220        O221   0.964       .  S
O221       Zr240   2.348   1_655  S
O221       Zr242   2.346       .  S
H222        O223   0.964       .  S
O223       Zr241   2.360       .  S
O223       Zr243   2.351       .  S
O224       Zr240   2.422       .  S
O224        C247   1.290       .  A
O225       Zr241   2.456       .  S
O225        C248   1.296       .  A
O226       Zr242   2.454   1_455  S
O226        C249   1.295       .  A
O227       Zr243   2.453   1_455  S
O227        C250   1.295       .  A
O228       Zr243   2.428       .  S
O228        C251   1.290       .  A
O229       Zr242   2.468       .  S
O229        C252   1.298       .  A
O230       Zr244   2.442       .  S
O230        C253   1.294       .  A
O231       Zr244   2.448       .  S
O231        C254   1.295       .  A
O232       Zr242   2.433   1_455  S
O232        C253   1.293       .  A
O233       Zr243   2.465   1_455  S
O233        C254   1.298       .  A
O234       Zr240   2.411       .  S
O234        C249   1.288       .  A
O235       Zr241   2.448       .  S
O235        C252   1.295       .  A
O236       Zr241   2.431       .  S
O236        C251   1.290       .  A
O237       Zr240   2.420       .  S
O237        C250   1.290       .  A
O238       Zr244   2.431       .  S
O238        C247   1.292       .  A
O239       Zr244   2.413       .  S
O239        C248   1.289   1_455  A
Zr240       O246   2.318       .  S
Zr240       O258   2.355       .  S
Zr241       O245   2.327       .  S
Zr241       O256   2.356       .  S
Zr242       O246   2.331   1_655  S
Zr242       O256   2.350       .  S
Zr243       O245   2.331       .  S
Zr243       O258   2.347   1_655  S
Zr244       O245   2.318   1_455  S
Zr244       O246   2.316       .  S
Zr244       O258   2.357       .  S
Zr244       O256   2.364   1_455  S
C247       C1157   1.474       .  S
C248       C1057   1.481       .  S
C249       C1087   1.472       .  S
C250       C1144   1.486       .  S
C251       C1124   1.454       .  S
C252       C1104   1.504       .  S
C253       C1074   1.486       .  S
C254       C1114   1.497       .  S
H255        O256   0.964       .  S
H257        O258   0.967       .  S
O259       Zr295   2.420       .  S
O259        C270   1.289       .  A
O260       Zr294   2.446       .  S
O260        C271   1.294   1_455  A
O261       Zr267   2.448       .  S
O261        C272   1.295       .  A
O262       Zr267   2.431       .  S
O262        C273   1.292       .  A
O263       Zr297   2.450       .  S
O263        C273   1.296       .  A
O264       Zr296   2.478       .  S
O264        C272   1.300       .  A
O265       Zr267   2.395       .  S
O265        C271   1.285       .  A
O266       Zr267   2.432       .  S
O266        C270   1.291       .  A
Zr267       O268   2.361       .  S
Zr267       O269   2.346       .  S
Zr267       O277   2.314       .  S
Zr267       O275   2.321       .  S
O268       Zr294   2.349   1_655  S
O268       Zr297   2.354       .  S
O269       Zr295   2.349       .  S
O269       Zr296   2.354       .  S
C270       C1351   1.475       .  S
C271        C964   1.472       .  S
C272       C1024   1.503       .  S
C273        C984   1.483       .  S
H274        O275   0.965       .  S
O275       Zr294   2.326   1_655  S
O275       Zr296   2.340       .  S
H276        O277   0.964       .  S
O277       Zr295   2.310       .  S
O277       Zr297   2.342       .  S
O278       Zr294   2.432       .  S
O278        C301   1.291       .  A
O279       Zr295   2.418       .  S
O279        C302   1.289       .  A
O280       Zr296   2.435   1_455  S
O280        C303   1.293       .  A
O281       Zr297   2.474   1_455  S
O281        C304   1.300       .  A
O282       Zr297   2.461       .  S
O282        C305   1.297       .  A
O283       Zr296   2.462       .  S
O283        C306   1.298       .  A
O284       Zr298   2.423       .  S
O284        C307   1.290       .  A
O285       Zr298   2.414       .  S
O285        C308   1.289       .  A
O286       Zr296   2.455   1_455  S
O286        C307   1.296       .  A
O287       Zr297   2.442   1_455  S
O287        C308   1.293       .  A
O288       Zr294   2.418       .  S
O288        C303   1.290       .  A
O289       Zr295   2.416       .  S
O289        C306   1.290       .  A
O290       Zr295   2.430       .  S
O290        C305   1.291       .  A
O291       Zr294   2.438       .  S
O291        C304   1.293       .  A
O292       Zr298   2.429       .  S
O292        C301   1.291       .  A
O293       Zr298   2.434       .  S
O293        C302   1.292   1_455  A
Zr294       O300   2.345       .  S
Zr294       O312   2.322       .  S
Zr295       O299   2.343       .  S
Zr295       O310   2.321       .  S
Zr296       O300   2.350   1_655  S
Zr296       O310   2.339       .  S
Zr297       O299   2.352       .  S
Zr297       O312   2.341   1_655  S
Zr298       O299   2.344   1_455  S
Zr298       O300   2.339       .  S
Zr298       O312   2.318       .  S
Zr298       O310   2.311   1_455  S
C301       C1169   1.480       .  S
C302        C954   1.477       .  S
C303       C1014   1.464       .  S
C304        C994   1.494       .  S
C305        C974   1.478       .  S
C306       C1034   1.484       .  S
C307       C1044   1.473       .  S
C308       C1004   1.469       .  S
H309        O310   0.964       .  S
H311        O312   0.964       .  S
C313        C314   1.539       .  S
C313        C319   1.526       .  S
C313        C317   1.542       .  S
C313        C942   1.520       .  S
C314        H321   1.084       .  S
C314        C315   1.365       .  D
C315        C316   1.542       .  S
C315        C987   1.482       .  S
C316        C320   1.541       .  S
C316        C318   1.536       .  S
C316        H322   1.110       .  S
C317        H323   1.085       .  S
C317        C318   1.366       .  D
C318       C1097   1.480       .  S
C319        H324   1.087       .  S
C319        C320   1.360       .  D
C320        C952   1.443       .  S
C325        C326   1.537       .  S
C325        C331   1.524       .  S
C325        C329   1.534       .  S
C325        C930   1.517       .  S
C326        H333   1.084       .  S
C326        C327   1.371       .  D
C327        C328   1.549       .  S
C327       C1084   1.495       .  S
C328        C332   1.559       .  S
C328        C330   1.554       .  S
C328        H334   1.108       .  S
C329        H335   1.085       .  S
C329        C330   1.362       .  D
C330        C997   1.490       .  S
C331        H336   1.087       .  S
C331        C332   1.357       .  D
C332        C940   1.460       .  S
C337        C338   1.539   1_545  S
C337        C343   1.529       .  S
C337        C341   1.539       .  S
C337       C1251   1.515       .  S
C338        H345   1.086       .  S
C338        C339   1.362       .  D
C339        C340   1.535   1_565  S
C339       C1127   1.469       .  S
C340        C344   1.540       .  S
C340        C342   1.540       .  S
C340        H346   1.111       .  S
C341        H347   1.083       .  S
C341        C342   1.366       .  D
C342       C1037   1.483       .  S
C343        H348   1.087       .  S
C343        C344   1.361       .  D
C344        C927   1.447   1_545  S
C349        C350   1.537       .  S
C349        C355   1.523   1_545  S
C349        C353   1.536   1_545  S
C349       C1383   1.515       .  S
C350        H357   1.085       .  S
C350        C351   1.369       .  D
C351        C352   1.557   1_545  S
C351       C1027   1.504       .  S
C352        C356   1.564       .  S
C352        C354   1.541       .  S
C352        H358   1.110       .  S
C353        H359   1.086       .  S
C353        C354   1.362       .  D
C354       C1137   1.467       .  S
C355        H360   1.087       .  S
C355        C356   1.356       .  D
C356        C925   1.463       .  S
C361        C362   1.536       .  S
C361        C367   1.524       .  S
C361        C365   1.539       .  S
C361        C914   1.521       .  S
C362        H369   1.084       .  S
C362        C363   1.368       .  D
C363        C364   1.557       .  S
C363       C1107   1.505       .  S
C364        C368   1.566       .  S
C364        C366   1.541       .  S
C364        H370   1.111       .  S
C365        H371   1.086       .  S
C365        C366   1.365       .  D
C366        C977   1.472       .  S
C367        H372   1.087       .  S
C367        C368   1.357       .  D
C368        C924   1.463       .  S
C373        C374   1.536       .  S
C373        C379   1.529       .  S
C373        C377   1.546       .  S
C373        C902   1.524       .  S
C374        H381   1.087       .  S
C374        C375   1.357       .  D
C375        C376   1.530       .  S
C375       C1007   1.458       .  S
C376        C380   1.540       .  S
C376        C378   1.543       .  S
C376        H382   1.110       .  S
C377        H383   1.082       .  S
C377        C378   1.373       .  D
C378       C1077   1.494       .  S
C379        H384   1.087       .  S
C379        C380   1.362       .  D
C380        C911   1.446       .  S
C385        C386   1.538       .  S
C385        C391   1.524       .  S
C385        C389   1.538   1_545  S
C385       C1241   1.521       .  S
C386        H393   1.084       .  S
C386        C387   1.372       .  D
C387        C388   1.551       .  S
C387       C1047   1.501       .  S
C388        C392   1.561       .  S
C388        C390   1.554   1_545  S
C388        H394   1.107       .  S
C389        H395   1.082       .  S
C389        C390   1.365       .  D
C390       C1117   1.494       .  S
C391        H396   1.088       .  S
C391        C392   1.355       .  D
C392        C899   1.460       .  S
C397        C398   1.539   1_545  S
C397        C403   1.529       .  S
C397        C401   1.535       .  S
C397       C1373   1.518       .  S
C398        H405   1.082       .  S
C398        C399   1.367       .  D
C399        C400   1.541   1_565  S
C399       C1147   1.485       .  S
C400        C404   1.544       .  S
C400        C402   1.533       .  S
C400        H406   1.111       .  S
C401        H407   1.087       .  S
C401        C402   1.357       .  D
C402       C1017   1.457       .  S
C403        H408   1.087       .  S
C403        C404   1.362       .  D
C404        C898   1.445       .  S
O409       Zr445   2.434       .  S
O409        C420   1.293       .  A
O410       Zr444   2.411       .  S
O410        C421   1.287       .  A
O411       Zr417   2.427       .  S
O411        C422   1.291       .  A
O412       Zr417   2.406       .  S
O412        C423   1.288       .  A
O413       Zr447   2.440   1_554  S
O413        C423   1.293       .  A
O414       Zr446   2.456   1_554  S
O414        C422   1.296       .  A
O415       Zr417   2.450       .  S
O415        C421   1.294       .  A
O416       Zr417   2.428       .  S
O416        C420   1.291   1_554  A
Zr417       O418   2.345       .  S
Zr417       O419   2.347   1_554  S
Zr417       O427   2.327   1_554  S
Zr417       O425   2.308       .  S
O418       Zr444   2.338       .  S
O418       Zr447   2.354   1_554  S
O419       Zr445   2.361       .  S
O419       Zr446   2.353       .  S
C420       C1217   1.479       .  S
C421        C917   1.480       .  S
C422        C828   1.476       .  S
C423        C888   1.465       .  S
H424        O425   0.964       .  S
O425       Zr444   2.320       .  S
O425       Zr446   2.341   1_554  S
H426        O427   0.964       .  S
O427       Zr445   2.316       .  S
O427       Zr447   2.336       .  S
O428       Zr444   2.412       .  S
O428        C451   1.288   1_554  A
O429       Zr445   2.454       .  S
O429        C452   1.296       .  A
O430       Zr446   2.462   1_554  S
O430        C453   1.297       .  A
O431       Zr447   2.458   1_554  S
O431        C454   1.296       .  A
O432       Zr447   2.460       .  S
O432        C455   1.297       .  A
O433       Zr446   2.453       .  S
O433        C456   1.296       .  A
O434       Zr448   2.452       .  S
O434        C457   1.296       .  A
O435       Zr448   2.444       .  S
O435        C458   1.295       .  A
O436       Zr446   2.462       .  S
O436        C457   1.297       .  A
O437       Zr447   2.447       .  S
O437        C458   1.295       .  A
O438       Zr444   2.417       .  S
O438        C453   1.289       .  A
O439       Zr445   2.426       .  S
O439        C456   1.291       .  A
O440       Zr445   2.453       .  S
O440        C455   1.296       .  A
O441       Zr444   2.429       .  S
O441        C454   1.291       .  A
O442       Zr448   2.414       .  S
O442        C451   1.289       .  A
O443       Zr448   2.402       .  S
O443        C452   1.287       .  A
Zr444       O450   2.352   1_554  S
Zr444       O462   2.311   1_554  S
Zr445       O449   2.349       .  S
Zr445       O460   2.319       .  S
Zr446       O450   2.355       .  S
Zr446       O460   2.336       .  S
Zr447       O449   2.355       .  S
Zr447       O462   2.335       .  S
Zr448       O449   2.360       .  S
Zr448       O450   2.347       .  S
Zr448       O462   2.320       .  S
Zr448       O460   2.314       .  S
C451       C1181   1.467       .  S
C452        C945   1.477       .  S
C453        C818   1.473       .  S
C454        C858   1.482       .  S
C455        C878   1.494       .  S
C456        C838   1.473       .  S
C457        C848   1.497       .  S
C458        C868   1.487       .  S
H459        O460   0.964       .  S
H461        O462   0.964       .  S
O463       Zr499   2.415       .  S
O463        C474   1.289   1_556  A
O464       Zr498   2.465       .  S
O464        C475   1.298       .  A
O465       Zr471   2.433       .  S
O465        C476   1.292       .  A
O466       Zr471   2.434       .  S
O466        C477   1.292       .  A
O467       Zr501   2.465       .  S
O467        C477   1.298       .  A
O468       Zr500   2.439       .  S
O468        C476   1.294       .  A
O469       Zr471   2.400       .  S
O469        C475   1.286       .  A
O470       Zr471   2.427       .  S
O470        C474   1.290       .  A
Zr471       O472   2.319       .  S
Zr471       O473   2.314       .  S
Zr471       O481   2.348       .  S
Zr471       O479   2.359       .  S
O472       Zr498   2.322       .  S
O472       Zr501   2.330       .  S
O473       Zr499   2.314   1_554  S
O473       Zr500   2.329       .  S
C474       C1229   1.471       .  S
C475        C905   1.481       .  S
C476        C758   1.482       .  S
C477        C801   1.491       .  S
H478        O479   0.965       .  S
O479       Zr498   2.351       .  S
O479       Zr500   2.349       .  S
H480        O481   0.964       .  S
O481       Zr499   2.346   1_554  S
O481       Zr501   2.349       .  S
O482       Zr498   2.430       .  S
O482        C505   1.292       .  A
O483       Zr499   2.411       .  S
O483        C506   1.288       .  A
O484       Zr500   2.465       .  S
O484        C507   1.298       .  A
O485       Zr501   2.428       .  S
O485        C508   1.292       .  A
O486       Zr501   2.442   1_556  S
O486        C509   1.293       .  A
O487       Zr500   2.458   1_556  S
O487        C510   1.296       .  A
O488       Zr502   2.410       .  S
O488        C511   1.286       .  A
O489       Zr502   2.420       .  S
O489        C512   1.289       .  A
O490       Zr500   2.427   1_556  S
O490        C511   1.290       .  A
O491       Zr501   2.460   1_556  S
O491        C512   1.296       .  A
O492       Zr498   2.441       .  S
O492        C507   1.293       .  A
O493       Zr499   2.419       .  S
O493        C510   1.289       .  A
O494       Zr499   2.415       .  S
O494        C509   1.289       .  A
O495       Zr498   2.421       .  S
O495        C508   1.290       .  A
O496       Zr502   2.432       .  S
O496        C505   1.291   1_556  A
O497       Zr502   2.434       .  S
O497        C506   1.292       .  A
Zr498       O504   2.322       .  S
Zr498       O516   2.358       .  S
Zr499       O503   2.317       .  S
Zr499       O514   2.343       .  S
Zr500       O504   2.331       .  S
Zr500       O514   2.349   1_554  S
Zr501       O503   2.328   1_554  S
Zr501       O516   2.343       .  S
Zr502       O503   2.316       .  S
Zr502       O504   2.327   1_556  S
Zr502       O516   2.347   1_556  S
Zr502       O514   2.346       .  S
C505       C1193   1.477       .  S
C506        C933   1.473       .  S
C507        C748   1.493       .  S
C508        C811   1.468       .  S
C509        C791   1.480       .  S
C510        C768   1.477       .  S
C511        C738   1.445       .  S
C512        C778   1.480       .  S
H513        O514   0.968       .  S
H515        O516   0.967       .  S
C517        C518   1.540   1_655  S
C517        C523   1.523   1_655  S
C517        C521   1.538       .  S
C517       C1067   1.524       .  S
C518        H525   1.084       .  S
C518        C519   1.372       .  D
C519        C520   1.545       .  S
C519        C771   1.496       .  S
C520        C524   1.559       .  S
C520        C522   1.552   1_455  S
C520        H526   1.108       .  S
C521        H527   1.084       .  S
C521        C522   1.364       .  D
C522        C881   1.491       .  S
C523        H528   1.087       .  S
C523        C524   1.357       .  D
C524        C735   1.458       .  S
C529        C530   1.538       .  S
C529        C535   1.526       .  S
C529        C533   1.535   1_655  S
C529        C967   1.516       .  S
C530        H537   1.082       .  S
C530        C531   1.366       .  D
C531        C532   1.545       .  S
C531        C871   1.492       .  S
C532        C536   1.542       .  S
C532        C534   1.538   1_655  S
C532        H538   1.109       .  S
C533        H539   1.085       .  S
C533        C534   1.363       .  D
C534        C741   1.473       .  S
C535        H540   1.087       .  S
C535        C536   1.361       .  D
C536        C733   1.444   1_655  S
C541        C542   1.535       .  S
C541        C547   1.530       .  S
C541        C545   1.541       .  S
C541       C1443   1.520       .  S
C542        H549   1.081       .  S
C542        C543   1.366       .  D
C543        C544   1.541       .  S
C543        C788   1.483       .  S
C544        C548   1.539       .  S
C544        C546   1.531       .  S
C544        H550   1.111       .  S
C545        H551   1.086       .  S
C545        C546   1.361       .  D
C546        C841   1.463       .  S
C547        H552   1.087       .  S
C547        C548   1.363       .  D
C548        C731   1.441       .  S
C553        C554   1.538       .  S
C553        C559   1.526       .  S
C553        C557   1.538       .  S
C553       C1301   1.525       .  S
C554        H561   1.085       .  S
C554        C555   1.372       .  D
C555        C556   1.543       .  S
C555        C831   1.493       .  S
C556        C560   1.559       .  S
C556        C558   1.553       .  S
C556        H562   1.109       .  S
C557        H563   1.082       .  S
C557        C558   1.364       .  D
C558        C798   1.491       .  S
C559        H564   1.087       .  S
C559        C560   1.357       .  D
C560        C729   1.459       .  S
C565        C566   1.538   1_655  S
C565        C571   1.522       .  S
C565        C569   1.539       .  S
C565        C957   1.519       .  S
C566        H573   1.085       .  S
C566        C567   1.364       .  D
C567        C568   1.555   1_455  S
C567        C751   1.490       .  S
C568        C572   1.563       .  S
C568        C570   1.547       .  S
C568        H574   1.110       .  S
C569        H575   1.086       .  S
C569        C570   1.370       .  D
C570        C861   1.494       .  S
C571        H576   1.087       .  S
C571        C572   1.355       .  D
C572        C728   1.460       .  S
C577        C578   1.536       .  S
C577        C583   1.529       .  S
C577        C581   1.540   1_655  S
C577       C1054   1.524       .  S
C578        H585   1.085       .  S
C578        C579   1.365       .  D
C579        C580   1.536       .  S
C579        C891   1.481       .  S
C580        C584   1.542       .  S
C580        C582   1.547   1_655  S
C580        H586   1.109       .  S
C581        H587   1.084       .  S
C581        C582   1.363       .  D
C582        C761   1.482       .  S
C583        H588   1.087       .  S
C583        C584   1.363       .  D
C584        C725   1.447       .  S
C589        C590   1.537       .  S
C589        C595   1.528       .  S
C589        C593   1.538       .  S
C589       C1433   1.523       .  S
C590        H597   1.081       .  S
C590        C591   1.369       .  D
C591        C592   1.553       .  S
C591        C851   1.499       .  S
C592        C596   1.562       .  S
C592        C594   1.541       .  S
C592        H598   1.111       .  S
C593        H599   1.087       .  S
C593        C594   1.363       .  D
C594        C781   1.472       .  S
C595        H600   1.087       .  S
C595        C596   1.357       .  D
C596        C723   1.463       .  S
C601        C602   1.539       .  S
C601        C607   1.530       .  S
C601        C605   1.540       .  S
C601       C1288   1.519       .  S
C602        H609   1.086       .  S
C602        C603   1.366       .  D
C603        C604   1.537       .  S
C603        C808   1.477       .  S
C604        C608   1.541       .  S
C604        C606   1.538       .  S
C604        H610   1.110       .  S
C605        H611   1.084       .  S
C605        C606   1.361       .  D
C606        C821   1.473       .  S
C607        H612   1.087       .  S
C607        C608   1.362       .  D
C608        C721   1.448       .  S
O613       Zr649   2.506       .  S
O613        C624   1.304       .  A
O614       Zr648   2.471       .  S
O614        C625   1.297       .  A
O615       Zr621   2.467       .  S
O615        C626   1.296       .  A
O616       Zr621   2.520       .  S
O616        C627   1.307       .  A
O617       Zr651   2.403       .  S
O617        C627   1.284       .  A
O618       Zr650   2.431       .  S
O618        C626   1.290       .  A
O619       Zr621   2.419       .  S
O619        C625   1.287       .  A
O620       Zr621   2.392       .  S
O620        C624   1.281       .  A
Zr621       O622   2.332       .  S
Zr621       O623   2.354       .  S
Zr621       O631   2.332       .  S
Zr621       O629   2.359       .  S
O622       Zr648   2.347       .  S
O622       Zr651   2.335       .  S
O623       Zr649   2.334       .  S
O623       Zr650   2.334       .  S
C624       C1368   1.447       .  S
C625        C722   1.440       .  S
C626       C1175   1.442       .  S
C627        C923   1.455       .  S
H628        O629   0.966       .  S
O629       Zr648   2.359       .  S
O629       Zr650   2.365       .  S
H630        O631   0.965       .  S
O631       Zr649   2.335       .  S
O631       Zr651   2.352       .  S
O632       Zr648   2.511       .  S
O632        C655   1.304       .  A
O633       Zr649   2.464       .  S
O633        C656   1.295       .  A
O634       Zr650   2.474       .  S
O634        C657   1.297       .  A
O635       Zr651   2.514       .  S
O635        C658   1.306       .  A
O636       Zr651   2.471       .  S
O636        C659   1.297       .  A
O637       Zr650   2.525       .  S
O637        C660   1.307       .  A
O638       Zr652   2.516       .  S
O638        C661   1.306       .  A
O639       Zr652   2.467       .  S
O639        C662   1.296       .  A
O640       Zr650   2.398       .  S
O640        C661   1.283       .  A
O641       Zr651   2.431       .  S
O641        C662   1.290       .  A
O642       Zr648   2.410       .  S
O642        C657   1.286       .  A
O643       Zr649   2.402       .  S
O643        C660   1.283       .  A
O644       Zr649   2.417       .  S
O644        C659   1.288       .  A
O645       Zr648   2.389       .  S
O645        C658   1.281       .  A
O646       Zr652   2.389       .  S
O646        C655   1.281       .  A
O647       Zr652   2.420       .  S
O647        C656   1.288       .  A
Zr648       O654   2.331       .  S
Zr648       O666   2.333       .  S
Zr649       O653   2.358       .  S
Zr649       O664   2.351       .  S
Zr650       O654   2.350       .  S
Zr650       O664   2.336       .  S
Zr651       O653   2.358       .  S
Zr651       O666   2.335       .  S
Zr652       O653   2.356       .  S
Zr652       O654   2.327       .  S
Zr652       O666   2.351       .  S
Zr652       O664   2.335       .  S
C655       C1164   1.444       .  S
C656        C732   1.434       .  S
C657        C912   1.438       .  S
C658        C730   1.449       .  S
C659        C951   1.436       .  S
C660        C724   1.456       .  S
C661        C939   1.453       .  S
C662       C1211   1.440       .  S
H663        O664   0.965       .  S
H665        O666   0.965       .  S
O667       Zr703   2.512       .  S
O667        C678   1.305       .  A
O668       Zr702   2.467   1_455  S
O668        C679   1.296       .  A
O669       Zr675   2.509       .  S
O669        C680   1.304       .  A
O670       Zr675   2.463   1_545  S
O670        C681   1.295       .  A
O671       Zr705   2.428       .  S
O671        C681   1.289   1_554  A
O672       Zr704   2.396       .  S
O672        C680   1.282   1_655  A
O673       Zr675   2.427   1_545  S
O673        C679   1.289       .  A
O674       Zr675   2.394       .  S
O674        C678   1.282   1_556  A
Zr675       O676   2.355   1_565  S
Zr675       O677   2.329       .  S
Zr675       O685   2.354   1_566  S
Zr675       O683   2.335   1_455  S
O676       Zr702   2.354   1_455  S
O676       Zr705   2.356   1_556  S
O677       Zr703   2.335   1_556  S
O677       Zr704   2.347   1_455  S
C678       C1235   1.445       .  S
C679        C897   1.439       .  S
C680        C736   1.450       .  S
C681       C1200   1.439       .  S
H682        O683   0.965       .  S
O683       Zr702   2.354   1_565  S
O683       Zr704   2.335       .  S
H684        O685   0.965       .  S
O685       Zr703   2.336   1_545  S
O685       Zr705   2.333       .  S
O686       Zr702   2.509       .  S
O686        C709   1.304       .  A
O687       Zr703   2.472   1_655  S
O687        C710   1.297       .  A
O688       Zr704   2.528       .  S
O688        C711   1.308       .  A
O689       Zr705   2.473   1_556  S
O689        C712   1.297       .  A
O690       Zr705   2.512       .  S
O690        C713   1.305       .  A
O691       Zr704   2.469   1_554  S
O691        C714   1.297       .  A
O692       Zr706   2.472   1_565  S
O692        C715   1.297       .  A
O693       Zr706   2.521       .  S
O693        C716   1.307       .  A
O694       Zr704   2.416       .  S
O694        C715   1.287   1_556  A
O695       Zr705   2.399       .  S
O695        C716   1.283   1_455  A
O696       Zr702   2.398       .  S
O696        C711   1.282   1_545  A
O697       Zr703   2.416   1_655  S
O697        C714   1.287       .  A
O698       Zr703   2.397   1_545  S
O698        C713   1.282       .  A
O699       Zr702   2.415       .  S
O699        C712   1.287   1_655  A
O700       Zr706   2.385       .  S
O700        C709   1.281   1_554  A
O701       Zr706   2.421       .  S
O701        C710   1.288   1_545  A
Zr702       O708   2.332       .  S
Zr702       O720   2.333   1_556  S
Zr703       O707   2.347   1_465  S
Zr703       O718   2.358   1_455  S
Zr704       O708   2.332   1_565  S
Zr704       O718   2.366   1_556  S
Zr705       O707   2.337   1_455  S
Zr705       O720   2.350   1_455  S
Zr706       O707   2.333       .  S
Zr706       O708   2.353   1_554  S
Zr706       O720   2.332       .  S
Zr706       O718   2.356   1_545  S
C709       C1187   1.444       .  S
C710        C928   1.440       .  S
C711        C926   1.455       .  S
C712        C734   1.437       .  S
C713        C900   1.452       .  S
C714        C726   1.437       .  S
C715       C1224   1.439       .  S
C716        C727   1.453       .  S
H717        O718   0.965       .  S
H719        O720   0.965       .  S
C721        C722   1.210       .  T
C723        C724   1.220       .  T
C725        C726   1.208       .  T
C727        C728   1.218       .  T
C729        C730   1.217       .  T
C731        C732   1.206       .  T
C733        C734   1.208       .  T
C735        C736   1.216       .  T
C737        C738   1.395       .  A
C737        C742   1.392       .  A
C737        H743   1.084       .  S
C738        C739   1.399       .  A
C739        C740   1.391       .  A
C739        H744   1.084       .  S
C740        C741   1.402       .  A
C740        H745   1.082       .  S
C741        C742   1.409       .  A
C742        H746   1.082       .  S
C747        C748   1.411       .  A
C747        C752   1.404       .  A
C747        H753   1.083       .  S
C748        C749   1.404       .  A
C749        C750   1.404       .  A
C749        H754   1.083       .  S
C750        C751   1.407       .  A
C750        H755   1.080       .  S
C751        C752   1.403       .  A
C752        H756   1.083       .  S
C757        C758   1.409       .  A
C757        C762   1.398       .  A
C757        H763   1.083       .  S
C758        C759   1.404       .  A
C759        C760   1.398       .  A
C759        H764   1.083       .  S
C760        C761   1.404       .  A
C760        H765   1.077       .  S
C761        C762   1.401       .  A
C762        H766   1.083       .  S
C767        C768   1.403       .  A
C767        C772   1.394       .  A
C767        H773   1.083       .  S
C768        C769   1.403       .  A
C769        C770   1.401       .  A
C769        H774   1.083       .  S
C770        C771   1.410       .  A
C770        H775   1.080       .  S
C771        C772   1.408       .  A
C772        H776   1.081       .  S
C777        C778   1.404       .  A
C777        C782   1.400       .  A
C777        H783   1.083       .  S
C778        C779   1.409       .  A
C779        C780   1.397       .  A
C779        H784   1.083       .  S
C780        C781   1.397       .  A
C780        H785   1.083       .  S
C781        C782   1.404       .  A
C782        H786   1.083       .  S
C787        C788   1.403       .  A
C787        C792   1.389       .  A
C787        H793   1.083       .  S
C788        C789   1.405       .  A
C789        C790   1.401       .  A
C789        H794   1.081       .  S
C790        C791   1.407       .  A
C790        H795   1.083       .  S
C791        C792   1.407       .  A
C792        H796   1.083       .  S
C797        C798   1.402       .  A
C797        C802   1.401       .  A
C797        H803   1.083       .  S
C798        C799   1.409       .  A
C799        C800   1.406       .  A
C799        H804   1.080       .  S
C800        C801   1.405       .  A
C800        H805   1.083       .  S
C801        C802   1.410       .  A
C802        H806   1.083       .  S
C807        C808   1.403       .  A
C807        C812   1.389       .  A
C807        H813   1.081       .  S
C808        C809   1.405       .  A
C809        C810   1.394       .  A
C809        H814   1.083       .  S
C810        C811   1.404       .  A
C810        H815   1.083       .  S
C811        C812   1.403       .  A
C812        H816   1.083       .  S
C817        C818   1.409       .  A
C817        C822   1.395       .  A
C817        H823   1.084       .  S
C818        C819   1.401       .  A
C819        C820   1.399       .  A
C819        H824   1.083       .  S
C820        C821   1.406       .  A
C820        H825   1.081       .  S
C821        C822   1.397       .  A
C822        H826   1.083       .  S
C827        C828   1.403       .  A
C827        C832   1.394       .  A
C827        H833   1.083       .  S
C828        C829   1.404       .  A
C829        C830   1.400       .  A
C829        H834   1.084       .  S
C830        C831   1.409       .  A
C830        H835   1.081       .  S
C831        C832   1.407       .  A
C832        H836   1.082       .  S
C837        C838   1.408       .  A
C837        C842   1.396       .  A
C837        H843   1.084       .  S
C838        C839   1.403       .  A
C839        C840   1.396       .  A
C839        H844   1.083       .  S
C840        C841   1.400       .  A
C840        H845   1.083       .  S
C841        C842   1.398       .  A
C842        H846   1.084       .  S
C847        C848   1.412       .  A
C847        C852   1.410       .  A
C847        H853   1.083       .  S
C848        C849   1.408       .  A
C849        C850   1.396       .  A
C849        H854   1.083       .  S
C850        C851   1.405       .  A
C850        H855   1.083       .  S
C851        C852   1.408       .  A
C852        H856   1.081       .  S
C857        C858   1.406       .  A
C857        C862   1.403       .  A
C857        H863   1.083       .  S
C858        C859   1.405       .  A
C859        C860   1.395       .  A
C859        H864   1.083       .  S
C860        C861   1.406       .  A
C860        H865   1.082       .  S
C861        C862   1.408       .  A
C862        H866   1.081       .  S
C867        C868   1.409       .  A
C867        C872   1.401       .  A
C867        H873   1.083       .  S
C868        C869   1.406       .  A
C869        C870   1.396       .  A
C869        H874   1.083       .  S
C870        C871   1.407       .  A
C870        H875   1.083       .  S
C871        C872   1.406       .  A
C872        H876   1.082       .  S
C877        C878   1.407       .  A
C877        C882   1.407       .  A
C877        H883   1.083       .  S
C878        C879   1.409       .  A
C879        C880   1.400       .  A
C879        H884   1.083       .  S
C880        C881   1.401       .  A
C880        H885   1.083       .  S
C881        C882   1.409       .  A
C882        H886   1.080       .  S
C887        C888   1.402       .  A
C887        C892   1.393       .  A
C887        H893   1.083       .  S
C888        C889   1.402       .  A
C889        C890   1.388       .  A
C889        H894   1.083       .  S
C890        C891   1.406       .  A
C890        H895   1.082       .  S
C891        C892   1.406       .  A
C892        H896   1.080       .  S
C897        C898   1.208       .  T
C899        C900   1.218       .  T
C901        C902   1.405       .  A
C901        C906   1.394       .  A
C901        H907   1.079       .  S
C902        C903   1.411       .  A
C903        C904   1.398       .  A
C903        H908   1.083       .  S
C904        C905   1.402       .  A
C904        H909   1.083       .  S
C905        C906   1.409       .  A
C906        H910   1.083       .  S
C911        C912   1.208       .  T
C913        C914   1.405       .  A
C913        C918   1.394       .  A
C913        H919   1.083       .  S
C914        C915   1.411       .  A
C915        C916   1.396       .  A
C915        H920   1.079       .  S
C916        C917   1.402       .  A
C916        H921   1.083       .  S
C917        C918   1.407       .  A
C918        H922   1.083       .  S
C923        C924   1.220       .  T
C925        C926   1.220       .  T
C927        C928   1.209       .  T
C929        C930   1.406       .  A
C929        C934   1.391       .  A
C929        H935   1.083       .  S
C930        C931   1.409       .  A
C931        C932   1.393       .  A
C931        H936   1.080       .  S
C932        C933   1.402       .  A
C932        H937   1.083       .  S
C933        C934   1.405       .  A
C934        H938   1.083       .  S
C939        C940   1.218       .  T
C941        C942   1.407       .  A
C941        C946   1.393       .  A
C941        H947   1.080       .  S
C942        C943   1.408       .  A
C943        C944   1.395       .  A
C943        H948   1.083       .  S
C944        C945   1.402       .  A
C944        H949   1.083       .  S
C945        C946   1.407       .  A
C946        H950   1.083       .  S
C951        C952   1.207       .  T
C953        C954   1.404       .  A
C953        C958   1.392       .  A
C953        H959   1.083       .  S
C954        C955   1.404   1_655  A
C955        C956   1.395       .  A
C955        H960   1.083       .  S
C956        C957   1.409   1_455  A
C956        H961   1.080       .  S
C957        C958   1.406       .  A
C958        H962   1.083       .  S
C963        C964   1.406       .  A
C963        C968   1.388       .  A
C963        H969   1.083       .  S
C964        C965   1.401   1_655  A
C965        C966   1.394       .  A
C965        H970   1.083       .  S
C966        C967   1.408   1_455  A
C966        H971   1.083       .  S
C967        C968   1.405       .  A
C968        H972   1.080       .  S
C973        C974   1.409       .  A
C973        C978   1.397       .  A
C973        H979   1.084       .  S
C974        C975   1.403       .  A
C975        C976   1.400       .  A
C975        H980   1.083       .  S
C976        C977   1.404       .  A
C976        H981   1.083       .  S
C977        C978   1.398       .  A
C978        H982   1.083       .  S
C983        C984   1.406       .  A
C983        C988   1.399       .  A
C983        H989   1.083       .  S
C984        C985   1.409       .  A
C985        C986   1.395       .  A
C985        H990   1.083       .  S
C986        C987   1.402       .  A
C986        H991   1.083       .  S
C987        C988   1.405       .  A
C988        H992   1.082       .  S
C993        C994   1.406       .  A
C993        C998   1.404       .  A
C993        H999   1.083       .  S
C994        C995   1.411       .  A
C995        C996   1.401       .  A
C995       H1000   1.083       .  S
C996        C997   1.404       .  A
C996       H1001   1.083       .  S
C997        C998   1.405       .  A
C998       H1002   1.077       .  S
C1003      C1004   1.408       .  A
C1003      C1008   1.388       .  A
C1003      H1009   1.083       .  S
C1004      C1005   1.404       .  A
C1005      C1006   1.397       .  A
C1005      H1010   1.083       .  S
C1006      C1007   1.402       .  A
C1006      H1011   1.082       .  S
C1007      C1008   1.394       .  A
C1008      H1012   1.084       .  S
C1013      C1014   1.406       .  A
C1013      C1018   1.390       .  A
C1013      H1019   1.083       .  S
C1014      C1015   1.403       .  A
C1015      C1016   1.395       .  A
C1015      H1020   1.083       .  S
C1016      C1017   1.401       .  A
C1016      H1021   1.083       .  S
C1017      C1018   1.395       .  A
C1018      H1022   1.084       .  S
C1023      C1024   1.409       .  A
C1023      C1028   1.399       .  A
C1023      H1029   1.083       .  S
C1024      C1025   1.411       .  A
C1025      C1026   1.411       .  A
C1025      H1030   1.083       .  S
C1026      C1027   1.408       .  A
C1026      H1031   1.081       .  S
C1027      C1028   1.407       .  A
C1028      H1032   1.083       .  S
C1033      C1034   1.406       .  A
C1033      C1038   1.402       .  A
C1033      H1039   1.083       .  S
C1034      C1035   1.410       .  A
C1035      C1036   1.392       .  A
C1035      H1040   1.083       .  S
C1036      C1037   1.400       .  A
C1036      H1041   1.083       .  S
C1037      C1038   1.407       .  A
C1038      H1042   1.082       .  S
C1043      C1044   1.402       .  A
C1043      C1048   1.399       .  A
C1043      H1049   1.084       .  S
C1044      C1045   1.401       .  A
C1045      C1046   1.398       .  A
C1045      H1050   1.084       .  S
C1046      C1047   1.409       .  A
C1046      H1051   1.079       .  S
C1047      C1048   1.412       .  A
C1048      H1052   1.081       .  S
C1053      C1054   1.405   1_455  A
C1053      C1058   1.392       .  A
C1053      H1059   1.080       .  S
C1054      C1055   1.411       .  A
C1055      C1056   1.398       .  A
C1055      H1060   1.083       .  S
C1056      C1057   1.403       .  A
C1056      H1061   1.083       .  S
C1057      C1058   1.407   1_655  A
C1058      H1062   1.083       .  S
C1063      C1064   1.405   1_455  A
C1063      C1068   1.395       .  A
C1063      H1069   1.083       .  S
C1064      C1065   1.405       .  A
C1065      C1066   1.396       .  A
C1065      H1070   1.083       .  S
C1066      C1067   1.409       .  A
C1066      H1071   1.079       .  S
C1067      C1068   1.408   1_655  A
C1068      H1072   1.083       .  S
C1073      C1074   1.407       .  A
C1073      C1078   1.399       .  A
C1073      H1079   1.083       .  S
C1074      C1075   1.406       .  A
C1075      C1076   1.397       .  A
C1075      H1080   1.083       .  S
C1076      C1077   1.406       .  A
C1076      H1081   1.082       .  S
C1077      C1078   1.407       .  A
C1078      H1082   1.080       .  S
C1083      C1084   1.408       .  A
C1083      C1088   1.398       .  A
C1083      H1089   1.079       .  S
C1084      C1085   1.409       .  A
C1085      C1086   1.393       .  A
C1085      H1090   1.081       .  S
C1086      C1087   1.402       .  A
C1086      H1091   1.084       .  S
C1087      C1088   1.401       .  A
C1088      H1092   1.082       .  S
C1093      C1094   1.400       .  A
C1093      C1098   1.394       .  A
C1093      H1099   1.084       .  S
C1094      C1095   1.397       .  A
C1095      C1096   1.396       .  A
C1095      H1100   1.083       .  S
C1096      C1097   1.408       .  A
C1096      H1101   1.082       .  S
C1097      C1098   1.404       .  A
C1098      H1102   1.082       .  S
C1103      C1104   1.413       .  A
C1103      C1108   1.414       .  A
C1103      H1109   1.083       .  S
C1104      C1105   1.408       .  A
C1105      C1106   1.398       .  A
C1105      H1110   1.083       .  S
C1106      C1107   1.406       .  A
C1106      H1111   1.083       .  S
C1107      C1108   1.409       .  A
C1108      H1112   1.081       .  S
C1113      C1114   1.407       .  A
C1113      C1118   1.406       .  A
C1113      H1119   1.083       .  S
C1114      C1115   1.410       .  A
C1115      C1116   1.402       .  A
C1115      H1120   1.083       .  S
C1116      C1117   1.403       .  A
C1116      H1121   1.083       .  S
C1117      C1118   1.407       .  A
C1118      H1122   1.077   1_565  S
C1123      C1124   1.399       .  A
C1123      C1128   1.397       .  A
C1123      H1129   1.083       .  S
C1124      C1125   1.400       .  A
C1125      C1126   1.391       .  A
C1125      H1130   1.084       .  S
C1126      C1127   1.400       .  A
C1126      H1131   1.083       .  S
C1127      C1128   1.407       .  A
C1128      H1132   1.083       .  S
C1133      C1134   1.408       .  A
C1133      C1138   1.394       .  A
C1133      H1139   1.083       .  S
C1134      C1135   1.404       .  A
C1135      C1136   1.398       .  A
C1135      H1140   1.083       .  S
C1136      C1137   1.403       .  A
C1136      H1141   1.082       .  S
C1137      C1138   1.396       .  A
C1138      H1142   1.083       .  S
C1143      C1144   1.407       .  A
C1143      C1148   1.403       .  A
C1143      H1149   1.083       .  S
C1144      C1145   1.409       .  A
C1145      C1146   1.392       .  A
C1145      H1150   1.083       .  S
C1146      C1147   1.402       .  A
C1146      H1151   1.083       .  S
C1147      C1148   1.406       .  A
C1148      H1152   1.081       .  S
C1153      C1154   1.406       .  A
C1153      C1158   1.391       .  A
C1153      H1159   1.080       .  S
C1154      C1155   1.407       .  A
C1155      C1156   1.393       .  A
C1155      H1160   1.083       .  S
C1156      C1157   1.404       .  A
C1156      H1161   1.083       .  S
C1157      C1158   1.405       .  A
C1158      H1162   1.083       .  S
C1163      C1164   1.214       .  T
C1165      C1166   1.408       .  A
C1165      C1170   1.395       .  A
C1165      H1171   1.080       .  S
C1166      C1167   1.407       .  A
C1167      C1168   1.395       .  A
C1167      H1172   1.083       .  S
C1168      C1169   1.405       .  A
C1168      H1173   1.083       .  S
C1169      C1170   1.405       .  A
C1170      H1174   1.083       .  S
C1175      C1176   1.210       .  T
C1177      C1178   1.406       .  A
C1177      C1182   1.389       .  A
C1177      H1183   1.083       .  S
C1178      C1179   1.406   1_556  A
C1179      C1180   1.390       .  A
C1179      H1184   1.080       .  S
C1180      C1181   1.404   1_554  A
C1180      H1185   1.083       .  S
C1181      C1182   1.402       .  A
C1182      H1186   1.083       .  S
C1187      C1188   1.214       .  T
C1189      C1190   1.409       .  A
C1189      C1194   1.390       .  A
C1189      H1195   1.078       .  S
C1190      C1191   1.408   1_554  A
C1191      C1192   1.398       .  A
C1191      H1196   1.083       .  S
C1192      C1193   1.405   1_556  A
C1192      H1197   1.083       .  S
C1193      C1194   1.402       .  A
C1194      H1198   1.083       .  S
C1199      C1200   1.209       .  T
C1201      C1202   1.406       .  A
C1201      C1206   1.394       .  A
C1201      H1207   1.081       .  S
C1202      C1203   1.409       .  A
C1203      C1204   1.397       .  A
C1203      H1208   1.082       .  S
C1204      C1205   1.405       .  A
C1204      H1209   1.083       .  S
C1205      C1206   1.405       .  A
C1206      H1210   1.083       .  S
C1211      C1212   1.208       .  T
C1213      C1214   1.408   1_554  A
C1213      C1218   1.398       .  A
C1213      H1219   1.083       .  S
C1214      C1215   1.410       .  A
C1215      C1216   1.392       .  A
C1215      H1220   1.078       .  S
C1216      C1217   1.402       .  A
C1216      H1221   1.083       .  S
C1217      C1218   1.406   1_556  A
C1218      H1222   1.083       .  S
C1223      C1224   1.209       .  T
C1225      C1226   1.407       .  A
C1225      C1230   1.393       .  A
C1225      H1231   1.083       .  S
C1226      C1227   1.408   1_554  A
C1227      C1228   1.389       .  A
C1227      H1232   1.077       .  S
C1228      C1229   1.402   1_556  A
C1228      H1233   1.083       .  S
C1229      C1230   1.403       .  A
C1230      H1234   1.083       .  S
C1235      C1236   1.215       .  T
C1237      C1238   1.404   1_565  A
C1237      C1242   1.397       .  A
C1237      H1243   1.083       .  S
C1238      C1239   1.403       .  A
C1239      C1240   1.391       .  A
C1239      H1244   1.083       .  S
C1240      C1241   1.407       .  A
C1240      H1245   1.083       .  S
C1241      C1242   1.410   1_545  A
C1242      H1246   1.077       .  S
C1247      C1248   1.402       .  A
C1247      C1252   1.390       .  A
C1247      H1253   1.083       .  S
C1248      C1249   1.404   1_545  A
C1249      C1250   1.390       .  A
C1249      H1254   1.083       .  S
C1250      C1251   1.406   1_565  A
C1250      H1255   1.083       .  S
C1251      C1252   1.408       .  A
C1252      H1256   1.079       .  S
C1257      C1258   1.401       .  A
C1257      C1262   1.394       .  A
C1257      H1263   1.083       .  S
C1258      C1259   1.408       .  A
C1259      C1260   1.395       .  A
C1259      H1264   1.084       .  S
C1260      C1261   1.398       .  A
C1260      H1265   1.084       .  S
C1261      C1262   1.402       .  A
C1262      H1266   1.083       .  S
C1267      C1268   1.403       .  A
C1267      C1272   1.392       .  A
C1267      H1273   1.083       .  S
C1268      C1269   1.403       .  A
C1269      C1270   1.399       .  A
C1269      H1274   1.083       .  S
C1270      C1271   1.410       .  A
C1270      H1275   1.079       .  S
C1271      C1272   1.408       .  A
C1272      H1276   1.081       .  S
C1277      C1278   1.403       .  A
C1277      C1282   1.397       .  A
C1277      H1283   1.083       .  S
C1278      C1279   1.407       .  A
C1279      C1280   1.391       .  A
C1279      H1284   1.083       .  S
C1280      C1281   1.395       .  A
C1280      H1285   1.083       .  S
C1281      C1282   1.402       .  A
C1282      H1286   1.082       .  S
C1287      C1288   1.408       .  A
C1287      C1292   1.392       .  A
C1287      H1293   1.078       .  S
C1288      C1289   1.408       .  A
C1289      C1290   1.395       .  A
C1289      H1294   1.083       .  S
C1290      C1291   1.405       .  A
C1290      H1295   1.083       .  S
C1291      C1292   1.403       .  A
C1292      H1296   1.083       .  S
C1297      C1298   1.404       .  A
C1297      C1302   1.394       .  A
C1297      H1303   1.083       .  S
C1298      C1299   1.404       .  A
C1299      C1300   1.397       .  A
C1299      H1304   1.083       .  S
C1300      C1301   1.411       .  A
C1300      H1305   1.077       .  S
C1301      C1302   1.408       .  A
C1302      H1306   1.083       .  S
C1307      C1308   1.410       .  A
C1307      C1312   1.401       .  A
C1307      H1313   1.083       .  S
C1308      C1309   1.410       .  A
C1309      C1310   1.406       .  A
C1309      H1314   1.083       .  S
C1310      C1311   1.406       .  A
C1310      H1315   1.082       .  S
C1311      C1312   1.407       .  A
C1312      H1316   1.083       .  S
C1317      C1318   1.398       .  A
C1317      C1322   1.391       .  A
C1317      H1323   1.084       .  S
C1318      C1319   1.404       .  A
C1319      C1320   1.396       .  A
C1319      H1324   1.083       .  S
C1320      C1321   1.407       .  A
C1320      H1325   1.081       .  S
C1321      C1322   1.409       .  A
C1322      H1326   1.078       .  S
C1327      C1328   1.399       .  A
C1327      C1332   1.395       .  A
C1327      H1333   1.083       .  S
C1328      C1329   1.408       .  A
C1329      C1330   1.395       .  A
C1329      H1334   1.084       .  S
C1330      C1331   1.397       .  A
C1330      H1335   1.084       .  S
C1331      C1332   1.403       .  A
C1332      H1336   1.083       .  S
C1337      C1338   1.407       .  A
C1337      C1342   1.404       .  A
C1337      H1343   1.083       .  S
C1338      C1339   1.404       .  A
C1339      C1340   1.392       .  A
C1339      H1344   1.083       .  S
C1340      C1341   1.407       .  A
C1340      H1345   1.081       .  S
C1341      C1342   1.410       .  A
C1342      H1346   1.080       .  S
C1347      C1348   1.409       .  A
C1347      C1352   1.395       .  A
C1347      H1353   1.083       .  S
C1348      C1349   1.407       .  A
C1349      C1350   1.391       .  A
C1349      H1354   1.077       .  S
C1350      C1351   1.404       .  A
C1350      H1355   1.083       .  S
C1351      C1352   1.403       .  A
C1352      H1356   1.083       .  S
C1357      C1358   1.406       .  A
C1357      C1362   1.405       .  A
C1357      H1363   1.076       .  S
C1358      C1359   1.405       .  A
C1359      C1360   1.402       .  A
C1359      H1364   1.083       .  S
C1360      C1361   1.409       .  A
C1360      H1365   1.083       .  S
C1361      C1362   1.407       .  A
C1362      H1366   1.083       .  S
C1367      C1368   1.215       .  T
C1369      C1370   1.403   1_565  A
C1369      C1374   1.392       .  A
C1369      H1375   1.083       .  S
C1370      C1371   1.404       .  A
C1371      C1372   1.393       .  A
C1371      H1376   1.083       .  S
C1372      C1373   1.407       .  A
C1372      H1377   1.083       .  S
C1373      C1374   1.408   1_545  A
C1374      H1378   1.078       .  S
C1379      C1380   1.406   1_565  A
C1379      C1384   1.393       .  A
C1379      H1385   1.083       .  S
C1380      C1381   1.402       .  A
C1381      C1382   1.392       .  A
C1381      H1386   1.083       .  S
C1382      C1383   1.408       .  A
C1382      H1387   1.081       .  S
C1383      C1384   1.407   1_545  A
C1384      H1388   1.082       .  S
C1389      C1390   1.407       .  A
C1389      C1394   1.392       .  A
C1389      H1395   1.083       .  S
C1390      C1391   1.405       .  A
C1391      C1392   1.400       .  A
C1391      H1396   1.083       .  S
C1392      C1393   1.406       .  A
C1392      H1397   1.080       .  S
C1393      C1394   1.403       .  A
C1394      H1398   1.083       .  S
C1399      C1400   1.404       .  A
C1399      C1404   1.399       .  A
C1399      H1405   1.082       .  S
C1400      C1401   1.401       .  A
C1401      C1402   1.388       .  A
C1401      H1406   1.083       .  S
C1402      C1403   1.406       .  A
C1402      H1407   1.082       .  S
C1403      C1404   1.406       .  A
C1404      H1408   1.081       .  S
C1409      C1410   1.409       .  A
C1409      C1414   1.391       .  A
C1409      H1415   1.083       .  S
C1410      C1411   1.405       .  A
C1411      C1412   1.397       .  A
C1411      H1416   1.083       .  S
C1412      C1413   1.402       .  A
C1412      H1417   1.080       .  S
C1413      C1414   1.396       .  A
C1414      H1418   1.083       .  S
C1419      C1420   1.412       .  A
C1419      C1424   1.409       .  A
C1419      H1425   1.083       .  S
C1420      C1421   1.408       .  A
C1421      C1422   1.398       .  A
C1421      H1426   1.083       .  S
C1422      C1423   1.406       .  A
C1422      H1427   1.083       .  S
C1423      C1424   1.407       .  A
C1424      H1428   1.080       .  S
C1429      C1430   1.403       .  A
C1429      C1434   1.396       .  A
C1429      H1435   1.083       .  S
C1430      C1431   1.404       .  A
C1431      C1432   1.393       .  A
C1431      H1436   1.083       .  S
C1432      C1433   1.406       .  A
C1432      H1437   1.083       .  S
C1433      C1434   1.412       .  A
C1434      H1438   1.076       .  S
C1439      C1440   1.401       .  A
C1439      C1444   1.392       .  A
C1439      H1445   1.083       .  S
C1440      C1441   1.405       .  A
C1441      C1442   1.393       .  A
C1441      H1446   1.083       .  S
C1442      C1443   1.406       .  A
C1442      H1447   1.083       .  S
C1443      C1444   1.411       .  A
C1444      H1448   1.077       .  S
C1449      C1450   1.410       .  A
C1449      C1454   1.392       .  A
C1449      H1455   1.083       .  S
C1450      C1451   1.403       .  A
C1451      C1452   1.397       .  A
C1451      H1456   1.083       .  S
C1452      C1453   1.402       .  A
C1452      H1457   1.080       .  S
C1453      C1454   1.395       .  A
C1454      H1458   1.083       .  S
C1459      C1460   1.407       .  A
C1459      C1464   1.400       .  A
C1459      H1465   1.083       .  S
C1460      C1461   1.413       .  A
C1461      C1462   1.409       .  A
C1461      H1466   1.083       .  S
C1462      C1463   1.406       .  A
C1462      H1467   1.081       .  S
C1463      C1464   1.408       .  A
C1464      H1468   1.083       .  S
C1469      C1470   1.411       .  A
C1469      C1474   1.395       .  A
C1469      H1475   1.083       .  S
C1470      C1471   1.402       .  A
C1471      C1472   1.398       .  A
C1471      H1476   1.083       .  S
C1472      C1473   1.404       .  A
C1472      H1477   1.076       .  S
C1473      C1474   1.399       .  A
C1474      H1478   1.083       .  S
C1479      C1480   1.407       .  A
C1479      C1484   1.399       .  A
C1479      H1485   1.084       .  S
C1480      C1481   1.400       .  A
C1481      C1482   1.398       .  A
C1481      H1486   1.083       .  S
C1482      C1483   1.405       .  A
C1482      H1487   1.083       .  S
C1483      C1484   1.399       .  A
C1484      H1488   1.083       .  S
