geometry optimzed in LAMMPS
_audit_creation_date              2020-11-30 
_audit_creation_method            'lammps2cif' 
_symmetry_space_group_name_H-M    'P1' 
_symmetry_Int_Tables_number       1 
_symmetry_cell_setting            triclinic 
loop_ 
_symmetry_equiv_pos_as_xyz 
  x,y,z 
_cell_length_a                    67.35857807 
_cell_length_b                    36.842627810358536 
_cell_length_c                    40.267874055693625 
_cell_angle_alpha                 90.25954772734454 
_cell_angle_beta                  88.48314829411 
_cell_angle_gamma                 89.05575124937309 
loop_ 
_atom_site_label 
_atom_site_type_symbol 
_atom_site_fract_x 
_atom_site_fract_y 
_atom_site_fract_z 
_atom_site_charge 
C1          C  0.95384301  0.22333891  0.08756512     0.80600
N2          N  0.96209675  0.24572543  0.11017599    -0.77700
C3          C  0.97564377  0.27059774  0.10008217     0.83100
N4          N  0.98137641  0.27208314  0.06756684    -0.77600
C5          C  0.97366281  0.24918531  0.04502309     0.83200
N6          N  0.95989343  0.22491981  0.05516399    -0.79300
O7          O  0.79326175  0.89372823  0.12487336    -0.80500
O8          O  0.85769810  0.00387211  0.11761920    -0.65200
O9          O  0.83166615  0.91416644  0.12757297    -1.11800
C10         C  0.81874099  0.95006318  0.23710681     1.06400
O11         O  0.87159199  0.00322497  0.16738362    -0.78400
O12         O  0.86735025  0.93366022  0.19285322    -0.65900
Ni13       Ni  0.81493673  0.89664954  0.09377433     1.34900
C14         C  0.85901288  0.90305056  0.19564893     0.85200
O15         O  0.85413030  0.94713733  0.07690932    -0.78900
O16         O  0.83603077  0.89932985  0.06128954    -0.89200
C17         C  0.86983936  0.01619249  0.13819897     0.84700
O18         O  0.80417998  0.94150793  0.07894376    -0.67400
O19         O  0.83679018  0.96008764  0.23420663    -0.86700
C20         C  0.80751214  0.97432040  0.08603255     0.85600
C21         C  0.84977903  0.92221677  0.05622283     1.07100
H22         H  0.82497866  0.99019005  0.16490544     0.38900
O23         O  0.83424919  0.96987359  0.16531063    -1.09300
O24         O  0.84055600  0.89913194  0.19134472    -0.66000
Ni25       Ni  0.81978066  0.92602596  0.17023416     1.26300
O26         O  0.82175827  0.98408820  0.10388718    -0.66200
O27         O  0.80867863  0.94014809  0.21247214    -0.78500
C28         C  0.79514385  0.87194426  0.14867949     0.84900
O29         O  0.80567761  0.88106617  0.17276256    -0.65700
Ni30       Ni  0.85343876  0.97944997  0.19839797     1.27400
Ni31       Ni  0.84446518  0.95904317  0.12130151     1.26100
H32         H  0.84190687  0.89579455  0.13026655     0.39500
C33         C  0.73471639  0.63741811  0.99440393     0.80600
N34         N  0.74296997  0.65562464  0.01977429    -0.77700
C35         C  0.76116384  0.67049512  0.01595781     0.83100
N36         N  0.77112156  0.66741253  0.98619084    -0.77600
C37         C  0.76276418  0.64994627  0.96030077     0.83200
N38         N  0.74458862  0.63485825  0.96461417    -0.79300
C39         C  0.94914885  0.64643204  0.29653935     0.80600
N40         N  0.94354356  0.67676798  0.27987532    -0.77700
C41         C  0.93050725  0.70083360  0.29410680     0.83100
N42         N  0.92328487  0.69487318  0.32521590    -0.77600
C43         C  0.92903918  0.66519193  0.34256606     0.83200
N44         N  0.94184629  0.64055352  0.32798162    -0.79300
O45         O  0.07366752  0.53604274  0.26856607    -0.80500
O46         O  0.13440089  0.42421398  0.31426477    -0.65200
O47         O  0.11023807  0.49863028  0.26502926    -1.11800
C48         C  0.07631932  0.40098040  0.21633030     1.06400
O49         O  0.14019091  0.38719756  0.27151788    -0.78400
O50         O  0.12765269  0.41088138  0.21196316    -0.65900
Ni51       Ni  0.09953807  0.54068865  0.28733923     1.34900
C52         C  0.12471068  0.44085457  0.19722432     0.85200
O53         O  0.14021816  0.49460123  0.31108357    -0.78900
O54         O  0.12483522  0.54913191  0.30695654    -0.89200
C55         C  0.14311891  0.39694647  0.30133758     0.84700
O56         O  0.08931427  0.51882205  0.32751809    -0.67400
O57         O  0.09084016  0.38064967  0.22477986    -0.86700
C58         C  0.09270851  0.48801058  0.34037764     0.85600
C59         C  0.13932087  0.52878953  0.31557077     1.07100
H60         H  0.09491203  0.42235172  0.28527461     0.38900
O61         O  0.10479203  0.43026876  0.26917372    -1.09300
O62         O  0.11127769  0.46390352  0.20618823    -0.66000
Ni63       Ni  0.09253611  0.46717922  0.24335920     1.26300
O64         O  0.10470793  0.46493530  0.32751210    -0.66200
O65         O  0.07513412  0.43485116  0.22214496    -0.78500
C66         C  0.06877495  0.52716020  0.23933473     0.84900
O67         O  0.07946751  0.50597590  0.22128626    -0.65700
Ni68       Ni  0.11514905  0.38695550  0.24848892     1.27400
Ni69       Ni  0.12264172  0.46195792  0.29029655     1.26100
H70         H  0.11998477  0.50725615  0.24904603     0.39500
C71         C  0.22926938  0.19434036  0.46883171     0.80600
N72         N  0.22387040  0.22338475  0.45027304    -0.77700
C73         C  0.20843732  0.24522321  0.46031761     0.83100
N74         N  0.19811715  0.23750151  0.48864380    -0.77600
C75         C  0.20330883  0.20867685  0.50744874     0.83200
N76         N  0.21893682  0.18701789  0.49754625    -0.79300
C77         C  0.99266541  0.42460780  0.58114764     0.80600
N78         N  0.00109673  0.39840270  0.59982758    -0.77700
C79         C  0.01930401  0.38441268  0.59158581     0.83100
N80         N  0.02928505  0.39708440  0.56431724    -0.77600
C81         C  0.02096224  0.42356924  0.54539866     0.83200
N82         N  0.00264588  0.43723953  0.55394622    -0.79300
O83         O  0.87500818  0.58119128  0.66841565    -0.80500
O84         O  0.80728917  0.70493841  0.66631278    -0.65200
O85         O  0.83741418  0.61542715  0.66346437    -1.11800
C86         C  0.85642450  0.66115884  0.55544435     1.06400
O87         O  0.79733554  0.68737045  0.61807857    -0.78400
O88         O  0.81132281  0.64123016  0.57098274    -0.65900
Ni89       Ni  0.85569214  0.60573082  0.69797993     1.34900
C90         C  0.81423736  0.60858462  0.57951847     0.85200
O91         O  0.81055037  0.64794465  0.70863068    -0.78900
O92         O  0.83794215  0.62618406  0.73247985    -0.89200
C93         C  0.79760955  0.71151522  0.64038010     0.84700
O94         O  0.86922803  0.65084832  0.69258729    -0.67400
O95         O  0.84247835  0.68482588  0.55932644    -0.86700
C96         C  0.86121861  0.68235694  0.69359687     0.85600
C97         C  0.81985066  0.63735091  0.73404015     1.07100
H98         H  0.84548202  0.68786809  0.62752149     0.38900
O99         O  0.83547470  0.66975787  0.62448143    -1.09300
O100        O  0.82672852  0.59938767  0.60111833    -0.66000
Ni101      Ni  0.84867343  0.62454146  0.61987681     1.26300
O102        O  0.84278207  0.68769409  0.68849311    -0.66200
O103        O  0.85959209  0.63524704  0.57589988    -0.78500
C104        C  0.87473337  0.56864396  0.63877992     0.84900
O105        O  0.86236436  0.57948783  0.61775796    -0.65700
Ni106      Ni  0.81985011  0.68621886  0.58885426     1.27400
Ni107      Ni  0.82253490  0.66004979  0.66666303     1.26100
H108        H  0.82827243  0.59552241  0.66265054     0.39500
C109        C  0.72822472  0.95683509  0.49631830     0.80600
N110        N  0.73659697  0.93303061  0.51784308    -0.77700
C111        C  0.75208740  0.91125277  0.50753892     0.83100
N112        N  0.75906281  0.91337495  0.47566566    -0.77600
C113        C  0.75051954  0.93637872  0.45383790     0.83200
N114        N  0.73517868  0.95822303  0.46432021    -0.79300
C115        C  0.94460499  0.94113372  0.80285781     0.80600
N116        N  0.93877116  0.91498420  0.78107003    -0.77700
C117        C  0.92264527  0.89431996  0.78889129     0.83100
N118        N  0.91272878  0.89970348  0.81830063    -0.77600
C119        C  0.91858891  0.92520603  0.84010249     0.83200
N120        N  0.93438460  0.94592937  0.83214440    -0.79300
O121        O  0.06377189  0.11167800  0.75555621    -0.80500
O122        O  0.13555618  0.22077414  0.78054170    -0.65200
O123        O  0.09981077  0.14078071  0.77488466    -1.11800
C124        C  0.06966348  0.20570552  0.86754649     1.06400
O125        O  0.13756484  0.20397582  0.83231103    -0.78400
O126        O  0.11317059  0.16975839  0.87435492    -0.65900
Ni127      Ni  0.08701924  0.13253539  0.73395895     1.34900
C128        C  0.11006097  0.13730994  0.86577897     0.85200
O129        O  0.13398269  0.16244977  0.74006480    -0.78900
O130        O  0.10916352  0.14984622  0.70652365    -0.89200
C131        C  0.14389986  0.22310515  0.80839873     0.84700
O132        O  0.07521831  0.17999317  0.73531152    -0.67400
O133        O  0.08564563  0.22378609  0.86850948    -0.86700
C134        C  0.08534218  0.20877934  0.73324271     0.85600
C135        C  0.12735077  0.15715805  0.71127640     1.07100
H136        H  0.09247315  0.21860293  0.80247281     0.38900
O137        O  0.10015655  0.19816461  0.81043210    -1.09300
O138        O  0.09975030  0.12929327  0.84082041    -0.66000
Ni139      Ni  0.08327599  0.15807064  0.81185373     1.26300
O140        O  0.10287035  0.21091140  0.74443231    -0.66200
O141        O  0.06745631  0.17775421  0.84892553    -0.78500
C142        C  0.05769242  0.10497413  0.78516715     0.84900
O143        O  0.06572587  0.11809620  0.81066885    -0.65700
Ni144      Ni  0.11153149  0.21398397  0.85012786     1.27400
Ni145      Ni  0.11751679  0.18099198  0.77558904     1.26100
H146        H  0.10698589  0.11886244  0.78076077     0.39500
C147        C  0.20893144  0.47407548  0.93897936     0.80600
N148        N  0.20708030  0.44389069  0.91993047    -0.77700
C149        C  0.19929295  0.41335012  0.93316195     0.83100
N150        N  0.19348740  0.41299418  0.96572945    -0.77600
C151        C  0.19485138  0.44342654  0.98467957     0.83200
N152        N  0.20252520  0.47393180  0.97119183    -0.79300
C153        C  0.44656504  0.67764148  0.11787836     0.80600
N154        N  0.43439752  0.67155143  0.09206001    -0.77700
C155        C  0.41676546  0.68956515  0.09037095     0.83100
N156        N  0.41142030  0.71371511  0.11433817    -0.77600
C157        C  0.42337816  0.72068134  0.13989494     0.83200
N158        N  0.44113280  0.70264029  0.14182561    -0.79300
O159        O  0.56936410  0.51631537  0.17963823    -0.80500
O160        O  0.64018858  0.40142568  0.14847363    -0.65200
O161        O  0.60620107  0.48576100  0.16051719    -1.11800
C162        C  0.58095421  0.43948101  0.05811477     1.06400
O163        O  0.64574338  0.42540058  0.09985728    -0.78400
O164        O  0.62526386  0.46860374  0.06011363    -0.65900
Ni165      Ni  0.59088623  0.49071332  0.20072325     1.34900
C166        C  0.62251547  0.50000768  0.07232003     0.85200
O167        O  0.63747212  0.45442137  0.19547178    -0.78900
O168        O  0.61097704  0.46805036  0.22785337    -0.89200
C169        C  0.64963470  0.40097623  0.12071414     0.84700
O170        O  0.57830163  0.44573236  0.19316757    -0.67400
O171        O  0.59638642  0.41887487  0.05661780    -0.86700
C172        C  0.58685664  0.41492106  0.18978346     0.85600
C173        C  0.62944154  0.46035014  0.22392805     1.07100
H174        H  0.59881900  0.41375816  0.12307253     0.38900
O175        O  0.60752314  0.43380686  0.11850549    -1.09300
O176        O  0.61089872  0.50631714  0.09711151    -0.66000
Ni177      Ni  0.59184061  0.47644549  0.12041833     1.26300
O178        O  0.60531050  0.41133399  0.18192953    -0.66200
O179        O  0.57817669  0.46488757  0.07978017    -0.78500
C180        C  0.56553414  0.52823082  0.15079801     0.84900
O181        O  0.57538421  0.51864656  0.12483538    -0.65700
Ni182      Ni  0.62106456  0.42182714  0.07835114     1.27400
Ni183      Ni  0.62292564  0.44317037  0.15668810     1.26100
H184        H  0.61429068  0.50704576  0.15798880     0.39500
C185        C  0.71466006  0.14285129  0.98470681     0.80600
N186        N  0.70663125  0.13885171  0.95434669    -0.77700
C187        C  0.69666818  0.16708026  0.94038997     0.83100
N188        N  0.69446648  0.19908003  0.95720567    -0.77600
C189        C  0.70186307  0.20253303  0.98809578     0.83200
N190        N  0.71195306  0.17448434  0.00157759    -0.79300
C191        C  0.49263183  0.18339218  0.31261082     0.80600
N192        N  0.50163293  0.20091608  0.28672791    -0.77700
C193        C  0.51962805  0.21623734  0.29083647     0.83100
N194        N  0.52835378  0.21434507  0.32072516    -0.77600
C195        C  0.51935024  0.19742720  0.34669880     0.83200
N196        N  0.50150383  0.18191004  0.34251499    -0.79300
O197        O  0.37246243  0.02375677  0.24682810    -0.80500
O198        O  0.30040489  0.91993712  0.28539089    -0.65200
O199        O  0.33438791  0.00103330  0.26757543    -1.11800
C200        C  0.36135483  0.96163116  0.37061716     1.06400
O201        O  0.29622515  0.94660353  0.33330425    -0.78400
O202        O  0.31725507  0.99156921  0.36981599    -0.65900
Ni203      Ni  0.34973314  0.00157339  0.22719026     1.34900
C204        C  0.31965508  0.02232394  0.35659986     0.85200
O205        O  0.30235336  0.97070060  0.23599059    -0.78900
O206        O  0.32834269  0.98178463  0.20185385    -0.89200
C207        C  0.29255972  0.92027527  0.31445808     0.84700
O208        O  0.36137327  0.95487764  0.23453788    -0.67400
O209        O  0.34642056  0.94088886  0.37367533    -0.86700
C210        C  0.35202533  0.92561560  0.23880631     0.85600
C211        C  0.30980968  0.97664463  0.20716752     1.07100
H212        H  0.34255339  0.93162630  0.30764136     0.38900
O213        O  0.33377267  0.95220138  0.31203411    -1.09300
O214        O  0.33005730  0.02660292  0.33016826    -0.66000
Ni215      Ni  0.34896412  0.99434201  0.30749260     1.26300
O216        O  0.33395466  0.92519834  0.24916884    -0.66200
O217        O  0.36320981  0.98583162  0.34804374    -0.78500
C218        C  0.37558736  0.03975145  0.27424426     0.84900
O219        O  0.36466816  0.03559233  0.29999221    -0.65700
Ni220      Ni  0.32123161  0.94343594  0.35354674     1.27400
Ni221      Ni  0.31751912  0.96016172  0.27434816     1.26100
H222        H  0.32642916  0.02311138  0.26890638     0.39500
C223        C  0.23074509  0.66175278  0.44911251     0.80600
N224        N  0.23359276  0.65836662  0.48226876    -0.77700
C225        C  0.24260101  0.68525430  0.49925723     0.83100
N226        N  0.24868815  0.71553722  0.48290474    -0.77600
C227        C  0.24626031  0.71859428  0.44967038     0.83200
N228        N  0.23731206  0.69168228  0.43303473    -0.79300
C229        C  0.47607932  0.45005132  0.82516809     0.80600
N230        N  0.48396413  0.42534133  0.80277695    -0.77700
C231        C  0.49835340  0.40131830  0.81232035     0.83100
N232        N  0.50481973  0.40247526  0.84389377    -0.77600
C233        C  0.49748350  0.42743552  0.86598459     0.83200
N234        N  0.48308344  0.45105925  0.85655395    -0.79300
O235        O  0.29219282  0.75315673  0.82986852    -0.80500
O236        O  0.34811461  0.61820709  0.81557704    -0.65200
O237        O  0.32737190  0.71447983  0.82021912    -1.11800
C238        C  0.30117208  0.68249593  0.71533430     1.06400
O239        O  0.35867187  0.62339641  0.76334244    -0.78400
O240        O  0.34874942  0.68108097  0.72465672    -0.65900
Ni241      Ni  0.31120032  0.72952673  0.85746475     1.34900
C242        C  0.35017576  0.71384528  0.73416713     0.85200
O243        O  0.35068391  0.67104753  0.85965841    -0.78900
O244        O  0.32909597  0.70735336  0.88820041    -0.89200
C245        C  0.36035915  0.60997095  0.79230700     0.84700
O246        O  0.29440048  0.68869259  0.85880873    -0.67400
O247        O  0.31182149  0.65353384  0.71663390    -0.86700
C248        C  0.29853241  0.65548540  0.85376937     0.85600
C249        C  0.34448458  0.68663219  0.88626858     1.07100
H250        H  0.31083046  0.64924310  0.78362999     0.38900
O251        O  0.32280871  0.66268872  0.77929804    -1.09300
O252        O  0.33924085  0.72817288  0.75707387    -0.66000
Ni253      Ni  0.31489436  0.71261576  0.77829575     1.26300
O254        O  0.31514554  0.64408259  0.84202285    -0.66200
O255        O  0.30223190  0.70884482  0.73600036    -0.78500
C256        C  0.29634562  0.77413702  0.80591095     0.84900
O257        O  0.30701400  0.76304996  0.78125411    -0.65700
Ni258      Ni  0.33480094  0.63995124  0.74129760     1.27400
Ni259      Ni  0.33722463  0.66594918  0.81916443     1.26100
H260        H  0.33854379  0.73055972  0.81888200     0.39500
C261        C  0.21149716  0.99040792  0.96546440     0.80600
N262        N  0.22073903  0.97171596  0.93999144    -0.77700
C263        C  0.23956125  0.95867340  0.94307937     0.83100
N264        N  0.24900025  0.96402244  0.97186008    -0.77600
C265        C  0.23990224  0.98162066  0.99782857     0.83200
N266        N  0.22111521  0.99521243  0.99456959    -0.79300
C267        C  0.46016850  0.92721327  0.60662643     0.80600
N268        N  0.45159580  0.90324238  0.62802507    -0.77700
C269        C  0.43630889  0.88268407  0.61798612     0.83100
N270        N  0.42948211  0.88661282  0.58687052    -0.77600
C271        C  0.43744791  0.91121499  0.56578145     0.83200
N272        N  0.45287976  0.93147618  0.57562096    -0.79300
O273        O  0.64104748  0.21709148  0.61979133    -0.80500
O274        O  0.57996912  0.10106209  0.62927566    -0.65200
O275        O  0.60309343  0.19348775  0.62627152    -1.11800
C276        C  0.62276033  0.16391931  0.73558157     1.06400
O277        O  0.56658067  0.10918878  0.67989913    -0.78400
O278        O  0.57427545  0.17125886  0.71559163    -0.65900
Ni279      Ni  0.62009168  0.20671480  0.59017592     1.34900
C280        C  0.57691213  0.20428944  0.70762289     0.85200
O281        O  0.58052427  0.15328180  0.58300696    -0.78900
O282        O  0.59960139  0.19655833  0.55949613    -0.89200
C283        C  0.56721862  0.09327382  0.65161853     0.84700
O284        O  0.63289890  0.16139827  0.58024017    -0.67400
O285        O  0.60922155  0.14002001  0.73564192    -0.86700
C286        C  0.62950809  0.12919209  0.58924353     0.85600
C287        C  0.58498010  0.17481820  0.55913141     1.07100
H288        H  0.61483013  0.12635112  0.66710040     0.38900
O289        O  0.60376693  0.14289943  0.66891365    -1.09300
O290        O  0.59122207  0.21455821  0.68873920    -0.66000
Ni291      Ni  0.61451784  0.19054284  0.66905665     1.26300
O292        O  0.61458752  0.12081650  0.60733508    -0.66200
O293        O  0.62595023  0.18585973  0.71176096    -0.78500
C294        C  0.63838543  0.24204547  0.64120039     0.84900
O295        O  0.62602112  0.23763656  0.66506427    -0.65700
Ni296      Ni  0.58840179  0.12653052  0.70615698     1.27400
Ni297      Ni  0.59189929  0.14693221  0.62630509     1.26100
H298        H  0.59216326  0.21131862  0.62714629     0.39500
C299        C  0.72039029  0.45148418  0.47363294     0.80600
N300        N  0.71195132  0.42963535  0.49698868    -0.77700
C301        C  0.69445812  0.41339249  0.49134696     0.83100
N302        N  0.68540588  0.41897467  0.46213369    -0.77600
C303        C  0.69385494  0.43986038  0.43817308     0.83200
N304        N  0.71132957  0.45650594  0.44405900    -0.79300
C305        C  0.66170850  0.36088605  0.55263826     0.16400
C306        C  0.64596440  0.34401446  0.56926019    -0.32700
C307        C  0.65044502  0.32214648  0.59639670     0.20800
C308        C  0.66977299  0.31709348  0.60667612     0.03000
C309        C  0.68553220  0.33524103  0.59080793    -0.22400
C310        C  0.68101596  0.35716708  0.56345305     0.12100
S311        S  0.65929678  0.38556375  0.51734630    -0.06000
C312        C  0.68452787  0.39190372  0.51732964    -0.09500
C313        C  0.69423802  0.37547015  0.54342879    -0.26100
S314        S  0.67233868  0.28370784  0.63570944    -0.03300
C315        C  0.64710486  0.27715609  0.63405650    -0.16800
C316        C  0.63738921  0.30008291  0.61262250    -0.14800
H317        H  0.63095370  0.34643428  0.56042416     0.20600
H318        H  0.70071077  0.33098714  0.59831081     0.16700
H319        H  0.71010212  0.37616534  0.54704749     0.19200
H320        H  0.62198601  0.29738936  0.60601723     0.12500
C321        C  0.50214353  0.98156652  0.64455084     0.16400
C322        C  0.51463749  0.00087031  0.66539908    -0.32700
C323        C  0.52839646  0.02426088  0.65031052     0.20800
C324        C  0.53005661  0.02721323  0.61600975     0.03000
C325        C  0.51770756  0.00780726  0.59525956    -0.22400
C326        C  0.50355877  0.98547277  0.61033529     0.12100
S327        S  0.48358325  0.95361313  0.65777684    -0.06000
C328        C  0.47729884  0.94836642  0.61682702    -0.09500
C329        C  0.48936898  0.96654834  0.59432284    -0.26100
S330        S  0.54742062  0.05694270  0.60224852    -0.03300
C331        C  0.55224990  0.06646177  0.64312027    -0.16800
C332        C  0.54108498  0.04702488  0.66613409    -0.14800
H333        H  0.51331156  0.99854423  0.69215927     0.20600
H334        H  0.51871615  0.01078292  0.56852318     0.16700
H335        H  0.48764091  0.96645758  0.56765283     0.19200
H336        H  0.54218454  0.04944312  0.69283025     0.12500
C337        C  0.26566703  0.85582666  0.83179073     0.16400
C338        C  0.24977005  0.87567186  0.84654044    -0.32700
C339        C  0.25412198  0.90077076  0.87153702     0.20800
C340        C  0.27351146  0.90646418  0.88082469     0.03000
C341        C  0.28944952  0.88755927  0.86528511    -0.22400
C342        C  0.28504506  0.86183964  0.84087925     0.12100
S343        S  0.26309812  0.81899995  0.80643687    -0.06000
C344        C  0.28833064  0.81126670  0.80833100    -0.09500
C345        C  0.29811449  0.83678020  0.82702000    -0.26100
S346        S  0.27559186  0.93476496  0.91412617    -0.03300
C347        C  0.25004926  0.93895921  0.91574936    -0.16800
C348        C  0.24056853  0.91980121  0.89123030    -0.14800
H349        H  0.23457121  0.87005933  0.84037528     0.20600
H350        H  0.30450932  0.89105829  0.87337450     0.16700
H351        H  0.31353842  0.83423778  0.83377943     0.19200
H352        H  0.22461117  0.91826552  0.88909906     0.12500
C353        C  0.38585214  0.76421648  0.67621351     0.16400
C354        C  0.39648771  0.77698920  0.64857924    -0.32700
C355        C  0.40759479  0.80828982  0.65267080     0.20800
C356        C  0.40859256  0.82581922  0.68311470     0.03000
C357        C  0.39778068  0.81310886  0.71090504    -0.22400
C358        C  0.38616897  0.78215110  0.70656820     0.12100
S359        S  0.37115756  0.72718653  0.67558554    -0.06000
C360        C  0.36477655  0.73624610  0.71643568    -0.09500
C361        C  0.37383419  0.76634349  0.72985361    -0.26100
S362        S  0.42279657  0.86396120  0.68223666    -0.03300
C363        C  0.42668848  0.85654679  0.64026388    -0.16800
C364        C  0.41782219  0.82583209  0.62807889    -0.14800
H365        H  0.39580640  0.76350149  0.62468848     0.20600
H366        H  0.39806565  0.82712441  0.73457568     0.16700
H367        H  0.37149038  0.77606662  0.75509553     0.19200
H368        H  0.41836977  0.81734153  0.60226769     0.12500
C369        C  0.52756280  0.33822835  0.75113809     0.16400
C370        C  0.54068646  0.32303412  0.72675898    -0.32700
C371        C  0.54715847  0.28673666  0.73091629     0.20800
C372        C  0.54055911  0.26650838  0.75785147     0.03000
C373        C  0.52772029  0.28174152  0.78224949    -0.22400
C374        C  0.52152666  0.31794532  0.77836884     0.12100
S375        S  0.51852210  0.38219429  0.75197950    -0.06000
C376        C  0.50695987  0.37307497  0.78974921    -0.09500
C377        C  0.50990860  0.33774588  0.80051433    -0.26100
S378        S  0.54972574  0.22308214  0.75862495    -0.03300
C379        C  0.56302324  0.23190810  0.72248878    -0.16800
C380        C  0.56029584  0.26708351  0.71063538    -0.14800
H381        H  0.54582995  0.33891569  0.70577464     0.20600
H382        H  0.52294349  0.26611962  0.80364422     0.16700
H383        H  0.50441112  0.32744883  0.82411675     0.19200
H384        H  0.56754498  0.27767788  0.68849041     0.12500
C385        C  0.43274923  0.50851063  0.79214154     0.16400
C386        C  0.41808447  0.52555718  0.77324177    -0.32700
C387        C  0.40403171  0.54811335  0.78996330     0.20800
C388        C  0.40445796  0.55326917  0.82406919     0.03000
C389        C  0.41926824  0.53662691  0.84291775    -0.22400
C390        C  0.43337972  0.51425049  0.82612788     0.12100
S391        S  0.45077444  0.47917660  0.77673951    -0.06000
C392        C  0.45939031  0.47470648  0.81648242    -0.09500
C393        C  0.44869573  0.49523819  0.84013838    -0.26100
S394        S  0.38579567  0.58087307  0.83975497    -0.03300
C395        C  0.37749126  0.58609522  0.79983713    -0.16800
C396        C  0.38869139  0.56713669  0.77588325    -0.14800
H397        H  0.41757585  0.52125036  0.74666697     0.20600
H398        H  0.41969689  0.54074126  0.86953696     0.16700
H399        H  0.45169416  0.49564096  0.86643093     0.19200
H400        H  0.38572106  0.56716567  0.74958882     0.12500
C401        C  0.25678306  0.66151785  0.58834125     0.16400
C402        C  0.26439796  0.64467990  0.61657489    -0.32700
C403        C  0.27116764  0.66717003  0.64199846     0.20800
C404        C  0.26953782  0.70467700  0.64018920     0.03000
C405        C  0.26161348  0.72145332  0.61223972    -0.22400
C406        C  0.25575906  0.69905217  0.58614416     0.12100
S407        S  0.25002704  0.63932758  0.55310113    -0.06000
C408        C  0.24658896  0.68111696  0.53483979    -0.09500
C409        C  0.24996531  0.71042155  0.55551208    -0.26100
S410        S  0.27990908  0.72725700  0.67239858    -0.03300
C411        C  0.28737765  0.68581610  0.68769045    -0.16800
C412        C  0.28135295  0.65618777  0.66928592    -0.14800
H413        H  0.26599627  0.61542566  0.61786474     0.20600
H414        H  0.26107136  0.75074212  0.61013336     0.16700
H415        H  0.24896245  0.73859915  0.54809542     0.19200
H416        H  0.28509766  0.62816414  0.67468594     0.12500
C417        C  0.27599044  0.98370858  0.06951832     0.16400
C418        C  0.29282782  0.98057974  0.08886109    -0.32700
C419        C  0.29001762  0.98064449  0.12335238     0.20800
C420        C  0.27128133  0.98393084  0.13823207     0.03000
C421        C  0.25431968  0.98767735  0.11874464    -0.22400
C422        C  0.25712952  0.98739934  0.08395075     0.12100
S423        S  0.27656446  0.98151667  0.02738276    -0.06000
C424        C  0.25105463  0.98564135  0.02861822    -0.09500
C425        C  0.24263623  0.98898182  0.06041167    -0.26100
S426        S  0.27137466  0.98252860  0.18080213    -0.03300
C427        C  0.29690658  0.97759246  0.17814052    -0.16800
C428        C  0.30467460  0.97718653  0.14594931    -0.14800
H429        H  0.30751029  0.97751333  0.07746084     0.20600
H430        H  0.23961709  0.99009413  0.13014414     0.16700
H431        H  0.22683883  0.99075474  0.06600801     0.19200
H432        H  0.32033169  0.97457952  0.13934436     0.12500
C433        C  0.40002810  0.96257153  0.43862436     0.16400
C434        C  0.41277076  0.97163197  0.46436689    -0.32700
C435        C  0.41748283  0.94428746  0.48728133     0.20800
C436        C  0.40997922  0.90959729  0.48434669     0.03000
C437        C  0.39759768  0.90049889  0.45853219    -0.22400
C438        C  0.39270143  0.92774137  0.43610884     0.12100
S439        S  0.39098685  0.99206419  0.40966962    -0.06000
C440        C  0.37693927  0.95701856  0.39501654    -0.09500
C441        C  0.37961364  0.92439176  0.41118306    -0.26100
S442        S  0.41597925  0.88078764  0.51541912    -0.03300
C443        C  0.42888271  0.91555993  0.53289496    -0.16800
C444        C  0.42862786  0.94780979  0.51517413    -0.14800
H445        H  0.41825074  0.99893010  0.46700433     0.20600
H446        H  0.39145489  0.87359782  0.45668217     0.16700
H447        H  0.37171656  0.89974363  0.40583113     0.19200
H448        H  0.43541236  0.97275160  0.52304772     0.12500
C449        C  0.27329759  0.82955978  0.34787208     0.16400
C450        C  0.26893203  0.79308675  0.35418145    -0.32700
C451        C  0.26299150  0.78383473  0.38675141     0.20800
C452        C  0.26170388  0.80952866  0.41202435     0.03000
C453        C  0.26583632  0.84593152  0.40564417    -0.22400
C454        C  0.27151200  0.85521554  0.37308524     0.12100
S455        S  0.28180386  0.84649289  0.31058518    -0.06000
C456        C  0.28275325  0.88855837  0.32932235    -0.09500
C457        C  0.27664263  0.88895628  0.36251930    -0.26100
S458        S  0.25473655  0.79277686  0.45000371    -0.03300
C459        C  0.25306641  0.75079655  0.43151358    -0.16800
C460        C  0.25788823  0.75007251  0.39778537    -0.14800
H461        H  0.27024068  0.77279125  0.33468040     0.20600
H462        H  0.26480480  0.86614167  0.42525842     0.16700
H463        H  0.27689287  0.91252163  0.37869047     0.19200
H464        H  0.25767864  0.72606170  0.38218758     0.12500
C465        C  0.55027671  0.20422321  0.42459970     0.16400
C466        C  0.56483729  0.21202726  0.44741914    -0.32700
C467        C  0.56406320  0.19398860  0.47783606     0.20800
C468        C  0.54933507  0.16940421  0.48568434     0.03000
C469        C  0.53444643  0.16190000  0.46286138    -0.22400
C470        C  0.53535240  0.17983015  0.43203722     0.12100
S471        S  0.54962504  0.22218428  0.38584397    -0.06000
C472        C  0.52899193  0.19664276  0.37903932    -0.09500
C473        C  0.52287596  0.17555209  0.40586831    -0.26100
S474        S  0.55171445  0.14998343  0.52408862    -0.03300
C475        C  0.57275612  0.17543257  0.52919613    -0.16800
C476        C  0.57737993  0.19757594  0.50248496    -0.14800
H477        H  0.57653479  0.23093434  0.44146117     0.20600
H478        H  0.52292164  0.14259476  0.46861661     0.16700
H479        H  0.51031482  0.15757631  0.40594650     0.19200
H480        H  0.58999091  0.21542399  0.50101705     0.12500
C481        C  0.44422317  0.13110378  0.31613174     0.16400
C482        C  0.42767065  0.11120825  0.32613465    -0.32700
C483        C  0.41657031  0.09533122  0.30130036     0.20800
C484        C  0.42173221  0.09880111  0.26790090     0.03000
C485        C  0.43826125  0.11901971  0.25782625    -0.22400
C486        C  0.44933731  0.13516701  0.28276347     0.12100
S487        S  0.45994253  0.15096996  0.34275752    -0.06000
C488        C  0.47366445  0.16506470  0.30869283    -0.09500
C489        C  0.46619508  0.15509573  0.27827773    -0.26100
S490        S  0.40650604  0.07647811  0.24178699    -0.03300
C491        C  0.39293612  0.06301503  0.27633687    -0.16800
C492        C  0.40004545  0.07495496  0.30629729    -0.14800
H493        H  0.42371259  0.10797779  0.35218722     0.20600
H494        H  0.44239097  0.12177793  0.23179762     0.16700
H495        H  0.47310817  0.16091302  0.25434555     0.19200
H496        H  0.39359448  0.06871320  0.33049298     0.12500
C497        C  0.66776808  0.14339118  0.86289200     0.16400
C498        C  0.65513603  0.12790147  0.83985708    -0.32700
C499        C  0.64989225  0.14890803  0.81240577     0.20800
C500        C  0.65731499  0.18343206  0.80758624     0.03000
C501        C  0.66984999  0.19903019  0.83073627    -0.22400
C502        C  0.67464291  0.17840495  0.85868531     0.12100
S503        S  0.67527510  0.12279740  0.89841012    -0.06000
C504        C  0.68717067  0.16223745  0.90830655    -0.09500
C505        C  0.68565387  0.18952592  0.88489804    -0.26100
S506        S  0.64936799  0.20429104  0.77247087    -0.03300
C507        C  0.63545387  0.16648860  0.76466791    -0.16800
C508        C  0.63720577  0.13913833  0.78799559    -0.14800
H509        H  0.64937457  0.10089654  0.84347267     0.20600
H510        H  0.67532875  0.22627875  0.82741516     0.16700
H511        H  0.69203875  0.21618046  0.88719005     0.19200
H512        H  0.62963825  0.11345556  0.78710174     0.12500
C513        C  0.66598765  0.45598232  0.29617685     0.16400
C514        C  0.68236424  0.45643013  0.31718535    -0.32700
C515        C  0.67863915  0.45218248  0.35151719     0.20800
C516        C  0.65950539  0.44728989  0.36410558     0.03000
C517        C  0.64322644  0.44730571  0.34327716    -0.22400
C518        C  0.64690886  0.45190943  0.30921636     0.12100
S519        S  0.66703881  0.46032736  0.25376648    -0.06000
C520        C  0.64147395  0.45728147  0.25397650    -0.09500
C521        C  0.63286811  0.45287451  0.28530557    -0.26100
S522        S  0.65790771  0.44072191  0.40588074    -0.03300
C523        C  0.68329337  0.44509878  0.40691651    -0.16800
C524        C  0.69243148  0.45141184  0.37618582    -0.14800
H525        H  0.69730683  0.45979103  0.30723217     0.20600
H526        H  0.62829364  0.44367724  0.35320710     0.16700
H527        H  0.61707346  0.45041860  0.29036365     0.19200
H528        H  0.70828394  0.45410920  0.37202167     0.12500
C529        C  0.54830970  0.41145118  0.98642604     0.16400
C530        C  0.54114958  0.39509367  0.95787665    -0.32700
C531        C  0.52636280  0.41366461  0.94079590     0.20800
C532        C  0.51851934  0.44663319  0.95208120     0.03000
C533        C  0.52538692  0.46269269  0.98128272    -0.22400
C534        C  0.54068501  0.44451973  0.99795085     0.12100
S535        S  0.56774130  0.39481930  0.00798912    -0.06000
C536        C  0.56598432  0.43296532  0.03284581    -0.09500
C537        C  0.55069377  0.45694511  0.02501297    -0.26100
S538        S  0.50168198  0.46584692  0.92603176    -0.03300
C539        C  0.50575388  0.42943132  0.89945616    -0.16800
C540        C  0.51904043  0.40359082  0.91088217    -0.14800
H541        H  0.54750055  0.36973494  0.94850492     0.20600
H542        H  0.51969087  0.48886860  0.98978542     0.16700
H543        H  0.54767907  0.48268473  0.03738554     0.19200
H544        H  0.52376185  0.37934217  0.89734035     0.12500
C545        C  0.67589004  0.31276895  0.09268911     0.16400
C546        C  0.68071373  0.27625653  0.08582869    -0.32700
C547        C  0.68842789  0.26770692  0.05389970     0.20800
C548        C  0.69141643  0.29423118  0.03002238     0.03000
C549        C  0.68742825  0.33071248  0.03735641    -0.22400
C550        C  0.67950933  0.33916713  0.06898232     0.12100
S551        S  0.66333428  0.32854540  0.12764512    -0.06000
C552        C  0.66288891  0.37091030  0.10965385    -0.09500
C553        C  0.67256022  0.37245042  0.07888909    -0.26100
S554        S  0.69859816  0.27814712  0.99164394    -0.03300
C555        C  0.69788673  0.23525387  0.00804969    -0.16800
C556        C  0.69253330  0.23371627  0.04149978    -0.14800
H557        H  0.67763014  0.25525944  0.10388437     0.20600
H558        H  0.68939889  0.35144231  0.01862299     0.16700
H559        H  0.67296811  0.39621429  0.06314128     0.19200
H560        H  0.69086246  0.20888633  0.05552820     0.12500
C561        C  0.54926767  0.34093434  0.21048433     0.16400
C562        C  0.53234675  0.32219474  0.22115952    -0.32700
C563        C  0.53512447  0.28716403  0.23381220     0.20800
C564        C  0.55388886  0.27114408  0.23485677     0.03000
C565        C  0.57070289  0.28926328  0.22273244    -0.22400
C566        C  0.56799578  0.32474124  0.21107581     0.12100
S567        S  0.54928898  0.38554259  0.19958412    -0.06000
C568        C  0.57482165  0.38258179  0.19608910    -0.09500
C569        C  0.58274546  0.34839253  0.20228306    -0.26100
S570        S  0.55469401  0.23145463  0.25637986    -0.03300
C571        C  0.52954958  0.23655242  0.26417409    -0.16800
C572        C  0.52097702  0.26695957  0.25001290    -0.14800
H573        H  0.51782791  0.33529195  0.22172319     0.20600
H574        H  0.58541170  0.27724051  0.22454961     0.16700
H575        H  0.59847278  0.34177942  0.20226872     0.19200
H576        H  0.50569769  0.27574373  0.25434254     0.12500
C577        C  0.37854555  0.66547987  0.95827654     0.16400
C578        C  0.39419542  0.65528055  0.97867582    -0.32700
C579        C  0.39387213  0.66929281  0.01111497     0.20800
C580        C  0.37843451  0.69171083  0.02278917     0.03000
C581        C  0.36269996  0.70134230  0.00267683    -0.22400
C582        C  0.36326076  0.68806387  0.97019090     0.12100
S583        S  0.37684051  0.65396036  0.91739418    -0.06000
C584        C  0.35556256  0.68051931  0.91651893    -0.09500
C585        C  0.34998777  0.69659082  0.94646131    -0.26100
S586        S  0.38114564  0.70794913  0.06179442    -0.03300
C587        C  0.40354995  0.68487132  0.06247172    -0.16800
C588        C  0.40838203  0.66498646  0.03403678    -0.14800
H589        H  0.40638299  0.63826246  0.96935289     0.20600
H590        H  0.35088600  0.71946903  0.01160397     0.16700
H591        H  0.33717824  0.71439557  0.95047195     0.19200
H592        H  0.42206063  0.64958932  0.02985628     0.12500
C593        C  0.37109826  0.83184529  0.20989328     0.16400
C594        C  0.37286929  0.79681737  0.19661096    -0.32700
C595        C  0.39192670  0.78392832  0.18759686     0.20800
C596        C  0.40868839  0.80455318  0.19193398     0.03000
C597        C  0.40692142  0.83982302  0.20532137    -0.22400
C598        C  0.38770219  0.85303956  0.21385353     0.12100
S599        S  0.34905806  0.85275873  0.22065193    -0.06000
C600        C  0.36215293  0.89103406  0.22986558    -0.09500
C601        C  0.38262707  0.88722714  0.22526694    -0.26100
S602        S  0.43028736  0.78419999  0.17699191    -0.03300
C603        C  0.41633436  0.74808815  0.16432774    -0.16800
C604        C  0.39622718  0.75174575  0.17197655    -0.14800
H605        H  0.35986353  0.78063038  0.19259379     0.20600
H606        H  0.41983806  0.85658993  0.20800550     0.16700
H607        H  0.39316293  0.90858794  0.22930494     0.19200
H608        H  0.38508437  0.73266874  0.16453970     0.12500
C609        C  0.49341376  0.61693095  0.11043868     0.16400
C610        C  0.50888282  0.59324574  0.09997602    -0.32700
C611        C  0.52269561  0.58250922  0.12363203     0.20800
C612        C  0.52102668  0.59450598  0.15630240     0.03000
C613        C  0.50572356  0.61854992  0.16662524    -0.22400
C614        C  0.49203853  0.62959195  0.14292286     0.12100
S615        S  0.47481157  0.63216629  0.08591683    -0.06000
C616        C  0.46525321  0.65642775  0.11962596    -0.09500
C617        C  0.47600216  0.65253214  0.14829168    -0.26100
S618        S  0.53860125  0.57694468  0.18165673    -0.03300
C619        C  0.54859090  0.55365698  0.14780527    -0.16800
C620        C  0.53863596  0.55929290  0.11849512    -0.14800
H621        H  0.50999808  0.58337815  0.07460814     0.20600
H622        H  0.50443612  0.62797756  0.19211250     0.16700
H623        H  0.47204632  0.66510623  0.17196196     0.19200
H624        H  0.54252657  0.54634080  0.09495639     0.12500
C625        C  0.26349038  0.57663471  0.86677001     0.16400
C626        C  0.25395407  0.54328517  0.86604084    -0.32700
C627        C  0.24019252  0.53618900  0.89168776     0.20800
C628        C  0.23597201  0.56120340  0.91685525     0.03000
C629        C  0.24510716  0.59500777  0.91707874    -0.22400
C630        C  0.25897114  0.60203780  0.89150961     0.12100
S631        S  0.28199403  0.58884453  0.83971437    -0.06000
C632        C  0.28352301  0.62865623  0.86184759    -0.09500
C633        C  0.27023600  0.63238188  0.88844739    -0.26100
S634        S  0.22014281  0.54608843  0.94724291    -0.03300
C635        C  0.21915483  0.50576747  0.92562172    -0.16800
C636        C  0.23039021  0.50446012  0.89637196    -0.14800
H637        H  0.25758885  0.52326623  0.84696142     0.20600
H638        H  0.24203287  0.61446856  0.93686414     0.16700
H639        H  0.26949300  0.65529846  0.90540754     0.19200
H640        H  0.23202626  0.48097588  0.88018519     0.12500
C641        C  0.19076660  0.32248552  0.89027994     0.16400
C642        C  0.18630835  0.28641139  0.88353732    -0.32700
C643        C  0.17818561  0.27858386  0.85277867     0.20800
C644        C  0.17511489  0.30511951  0.82908517     0.03000
C645        C  0.18064615  0.34111422  0.83514783    -0.22400
C646        C  0.18825578  0.34919513  0.86651112     0.12100
S647        S  0.19721547  0.33806247  0.92835944    -0.06000
C648        C  0.19672524  0.38113694  0.91223407    -0.09500
C649        C  0.19210979  0.38303449  0.87886953    -0.26100
S650        S  0.16146511  0.29088240  0.79618327    -0.03300
C651        C  0.15951592  0.24930311  0.81539669    -0.16800
C652        C  0.16983986  0.24650228  0.84458691    -0.14800
H653        H  0.18765005  0.26577642  0.90246170     0.20600
H654        H  0.17774976  0.36231607  0.81729560     0.16700
H655        H  0.19042042  0.40801773  0.86508141     0.19200
H656        H  0.16934877  0.22331373  0.86103684     0.12500
C657        C  0.13986891  0.05694452  0.90038893     0.16400
C658        C  0.15225249  0.02618017  0.90288409    -0.32700
C659        C  0.16542923  0.02481050  0.92928681     0.20800
C660        C  0.16568430  0.05203269  0.95313806     0.03000
C661        C  0.15298953  0.08254434  0.95102659    -0.22400
C662        C  0.14043309  0.08468077  0.92370333     0.12100
S663        S  0.12496540  0.06592553  0.86758148    -0.06000
C664        C  0.11991222  0.10810540  0.88467806    -0.09500
C665        C  0.12896996  0.11408326  0.91485294    -0.26100
S666        S  0.18408009  0.04672926  0.98139002    -0.03300
C667        C  0.19206185  0.00834947  0.95987908    -0.16800
C668        C  0.18041071  0.99966185  0.93313995    -0.14800
H669        H  0.15246877  0.00524182  0.88391296     0.20600
H670        H  0.15372596  0.10463613  0.96875934     0.16700
H671        H  0.12815400  0.13942563  0.92860065     0.19200
H672        H  0.18350894  0.97735584  0.91606766     0.12500
C673        C  0.99123891  0.99512221  0.77665260     0.16400
C674        C  0.00870400  0.00877934  0.76185670    -0.32700
C675        C  0.01795695  0.03779286  0.77784728     0.20800
C676        C  0.01021584  0.05246343  0.80729821     0.03000
C677        C  0.99264391  0.03920937  0.82177741    -0.22400
C678        C  0.98343912  0.01026867  0.80582460     0.12100
S679        S  0.97796810  0.95927115  0.76201046    -0.06000
C680        C  0.96179141  0.96476993  0.79566663    -0.09500
C681        C  0.96659998  0.99318917  0.81667420    -0.26100
S682        S  0.02395685  0.08660954  0.82346184    -0.03300
C683        C  0.04023051  0.08158464  0.78993744    -0.16800
C684        C  0.03508602  0.05469533  0.76757256    -0.14800
H685        H  0.01491245  0.99709978  0.73907039     0.20600
H686        H  0.98653175  0.05066339  0.84473821     0.16700
H687        H  0.95832120  0.00076347  0.83914429     0.19200
H688        H  0.04355063  0.04766554  0.74515929     0.12500
C689        C  0.66433868  0.04765813  0.56896598     0.16400
C690        C  0.67518313  0.01473572  0.56809576    -0.32700
C691        C  0.68917971  0.00935933  0.54193678     0.20800
C692        C  0.69205751  0.03544883  0.51763348     0.03000
C693        C  0.68152397  0.06849669  0.51885659    -0.22400
C694        C  0.66772216  0.07399043  0.54508163     0.12100
S695        S  0.64627797  0.05937822  0.59796577    -0.06000
C696        C  0.64360109  0.10039124  0.57792195    -0.09500
C697        C  0.65607258  0.10435891  0.55029514    -0.26100
S698        S  0.70918872  0.02367314  0.48744043    -0.03300
C699        C  0.71295703  0.98336068  0.50799441    -0.16800
C700        C  0.70133332  0.97942651  0.53671755    -0.14800
H701        H  0.67276745  0.99420327  0.58686066     0.20600
H702        H  0.68393018  0.08902132  0.50007197     0.16700
H703        H  0.65641725  0.12811626  0.53455407     0.19200
H704        H  0.70175592  0.95599433  0.55283798     0.12500
C705        C  0.77432409  0.80128386  0.61297668     0.16400
C706        C  0.76093720  0.82907826  0.60414795    -0.32700
C707        C  0.76529740  0.84873409  0.57502576     0.20000
C708        C  0.78240728  0.84147557  0.55606342     0.03000
C709        C  0.79598340  0.81456800  0.56534837    -0.22400
C710        C  0.79143008  0.79453761  0.59388306     0.12100
S711        S  0.77054709  0.77058629  0.64439022    -0.06000
C712        C  0.79213593  0.74868112  0.63116879    -0.09500
C713        C  0.80171556  0.76474123  0.60438029    -0.26100
S714        S  0.78434761  0.86561949  0.52022498    -0.03300
C715        C  0.76177591  0.88585597  0.53047788    -0.16800
C716        C  0.75344689  0.87466388  0.56059399    -0.14800
H717        H  0.74728765  0.83396760  0.61838524     0.20600
H718        H  0.80907521  0.80829209  0.55005670     0.16700
H719        H  0.81482583  0.75352634  0.59167485     0.19200
H720        H  0.73915464  0.88384365  0.57064686     0.12500
C721        C  0.89799430  0.75644990  0.71933492     0.16400
C722        C  0.91419016  0.77643361  0.73061387    -0.32700
C723        C  0.91055737  0.81258886  0.74100567     0.20800
C724        C  0.89167169  0.82801979  0.73973359     0.03000
C725        C  0.87567910  0.80839212  0.72784804    -0.22400
C726        C  0.87924001  0.77231863  0.71796695     0.12100
S727        S  0.89867885  0.71137533  0.70836274    -0.06000
C728        C  0.87340649  0.71406219  0.70213623    -0.09500
C729        C  0.86519301  0.74837919  0.70791684    -0.26100
S730        S  0.88954528  0.87041915  0.75661272    -0.03300
C731        C  0.91439171  0.86797672  0.76548134    -0.16800
C732        C  0.92380494  0.83567207  0.75555890    -0.14800
H733        H  0.92878719  0.76395526  0.73236528     0.20600
H734        H  0.86087962  0.82031545  0.72757643     0.16700
H735        H  0.84956511  0.75522010  0.70598643     0.19200
H736        H  0.93903143  0.82844889  0.76090493     0.12500
C737        C  0.78422467  0.52837350  0.54794211     0.16400
C738        C  0.77344916  0.49644412  0.54453169    -0.32700
C739        C  0.76152787  0.49323265  0.51666530     0.20800
C740        C  0.76079464  0.52003715  0.49265336     0.03000
C741        C  0.77175390  0.55182120  0.49587122    -0.22400
C742        C  0.78317039  0.55555083  0.52431166     0.12100
S743        S  0.79848881  0.53855954  0.58110236    -0.06000
C744        C  0.80260126  0.58032118  0.56342526    -0.09500
C745        C  0.79363450  0.58548400  0.53313257    -0.26100
S746        S  0.74434020  0.51198797  0.46194911    -0.03300
C747        C  0.73790072  0.47268653  0.48231475    -0.16800
C748        C  0.74852156  0.46595793  0.51077048    -0.14800
H749        H  0.77375570  0.47561152  0.56340608     0.20600
H750        H  0.77080176  0.57331579  0.47769952     0.16700
H751        H  0.79454283  0.61004215  0.51852170     0.19200
H752        H  0.74608463  0.44326811  0.52731488     0.12500
C753        C  0.07110214  0.28426617  0.67322622     0.16400
C754        C  0.07052372  0.30930302  0.64709283    -0.32700
C755        C  0.05186442  0.32313274  0.63827164     0.20800
C756        C  0.03463197  0.31280282  0.65505938     0.03000
C757        C  0.03518244  0.28744492  0.68080661    -0.22400
C758        C  0.05376389  0.27327609  0.68929669     0.12100
S759        S  0.09214663  0.26371122  0.68728084    -0.06000
C760        C  0.07733078  0.23937880  0.71435828    -0.09500
C761        C  0.05722437  0.24726599  0.71273027    -0.26100
S762        S  0.01357861  0.33375138  0.64189998    -0.03300
C763        C  0.02801554  0.35651734  0.61310550    -0.16800
C764        C  0.04813338  0.34796494  0.61377243    -0.14800
H765        H  0.08400024  0.31754224  0.63416605     0.20600
H766        H  0.02169429  0.27905666  0.69361644     0.16700
H767        H  0.04573860  0.23397345  0.72728990     0.19200
H768        H  0.05944156  0.36004940  0.59794368     0.12500
C769        C  0.94560200  0.46628368  0.62185858     0.16400
C770        C  0.93149697  0.48164998  0.64417759    -0.32700
C771        C  0.91617765  0.50283667  0.63095239     0.20800
C772        C  0.91451744  0.50725485  0.59693596     0.03000
C773        C  0.92855739  0.49171630  0.57460756    -0.22400
C774        C  0.94433858  0.47181442  0.58791593     0.12100
S775        S  0.96607174  0.44202161  0.63316110    -0.06000
C776        C  0.97343171  0.44060024  0.59187817    -0.09500
C777        C  0.96037526  0.45731014  0.57053813    -0.26100
S778        S  0.89533564  0.53495728  0.58583478    -0.03300
C779        C  0.88996812  0.54195202  0.62749287    -0.16800
C780        C  0.90212728  0.52277509  0.64867857    -0.14800
H781        H  0.93283745  0.47837566  0.67074110     0.20600
H782        H  0.92764321  0.49614670  0.54811952     0.16700
H783        H  0.96267624  0.45929656  0.54389081     0.19200
H784        H  0.90113581  0.52423610  0.67554032     0.12500
C785        C  0.26665136  0.11890618  0.44382800     0.16400
C786        C  0.27713368  0.08602940  0.44031341    -0.32700
C787        C  0.28941402  0.08127632  0.41200187     0.20800
C788        C  0.29160950  0.10821646  0.38834498     0.03000
C789        C  0.28123485  0.14146948  0.39203797    -0.22400
C790        C  0.26855925  0.14594699  0.42017384     0.12100
S791        S  0.24997238  0.12853951  0.47536152    -0.06000
C792        C  0.24513612  0.16936452  0.45642738    -0.09500
C793        C  0.25622969  0.17512258  0.42733602    -0.26100
S794        S  0.30658493  0.09575215  0.35493339    -0.03300
C795        C  0.30942442  0.05361635  0.37291850    -0.16800
C796        C  0.29960295  0.05019238  0.40340930    -0.14800
H797        H  0.27532231  0.06458327  0.45839434     0.20600
H798        H  0.28250945  0.16242869  0.37337384     0.16700
H799        H  0.25491844  0.19888346  0.41175623     0.19200
H800        H  0.29934849  0.02565445  0.41812727     0.12500
C801        C  0.16725425  0.17089374  0.64258416     0.16400
C802        C  0.18475842  0.17329043  0.62302821    -0.32700
C803        C  0.18296648  0.18397005  0.58977801     0.20800
C804        C  0.16460358  0.19278498  0.57692468     0.03000
C805        C  0.14714168  0.19008436  0.59632607    -0.22400
C806        C  0.14889762  0.17853217  0.62922064     0.12100
S807        S  0.16612312  0.15864516  0.68352473    -0.06000
C808        C  0.14062118  0.16254422  0.68212879    -0.09500
C809        C  0.13358278  0.17354061  0.65167254    -0.26100
S810        S  0.16550442  0.20683731  0.53668917    -0.03300
C811        C  0.19085346  0.19997963  0.53675253    -0.16800
C812        C  0.19814435  0.18754858  0.56657213    -0.14800
H813        H  0.19911368  0.16699392  0.63323589     0.20600
H814        H  0.13279038  0.19658730  0.58617508     0.16700
H815        H  0.11806619  0.17829802  0.64642288     0.19200
H816        H  0.21369321  0.18238574  0.57123264     0.12500
C817        C  0.15392722  0.46946448  0.11838041     0.16400
C818        C  0.16085277  0.48555560  0.08879397    -0.32700
C819        C  0.17257886  0.46387414  0.06683415     0.20800
C820        C  0.17752065  0.42820141  0.07440371     0.03000
C821        C  0.17142301  0.41284493  0.10449801    -0.22400
C822        C  0.15934540  0.43404825  0.12591556     0.12100
S823        S  0.13720678  0.48876002  0.14632736    -0.06000
C824        C  0.13752171  0.44837779  0.16791254    -0.09500
C825        C  0.15029359  0.42212026  0.15438270    -0.26100
S826        S  0.18955449  0.40467085  0.04321463    -0.03300
C827        C  0.18809042  0.44323166  0.01957229    -0.16800
C828        C  0.17904806  0.47294596  0.03541973    -0.14800
H829        H  0.15641488  0.51296133  0.08235167     0.20600
H830        H  0.17496888  0.38479728  0.11012792     0.16700
H831        H  0.15215527  0.39489937  0.16400384     0.19200
H832        H  0.17636746  0.49901795  0.02390222     0.12500
C833        C  0.04355546  0.47023243  0.46824912     0.16400
C834        C  0.04801113  0.49296361  0.44121639    -0.32700
C835        C  0.06248228  0.48071765  0.41783193     0.20800
C836        C  0.07209658  0.44744036  0.42147666     0.03000
C837        C  0.06790722  0.42509632  0.44870191    -0.22400
C838        C  0.05343428  0.43722780  0.47191591     0.12100
S839        S  0.02567663  0.47891112  0.49825258    -0.06000
C840        C  0.03167318  0.43769544  0.51591031    -0.09500
C841        C  0.04687098  0.41866064  0.49939381    -0.26100
S842        S  0.08866449  0.43663693  0.39029630    -0.03300
C843        C  0.08280784  0.47748706  0.37190257    -0.16800
C844        C  0.06864582  0.49829304  0.38936315    -0.14800
H845        H  0.04029722  0.51871367  0.43824395     0.20600
H846        H  0.07539674  0.39907668  0.45138866     0.16700
H847        H  0.05241576  0.39213945  0.50653536     0.19200
H848        H  0.06310392  0.52458529  0.38160068     0.12500
C849        C  0.18333523  0.32296808  0.41467035     0.16400
C850        C  0.17002613  0.34999293  0.40481473    -0.32700
C851        C  0.16873188  0.35646925  0.37077138     0.20800
C852        C  0.18040004  0.33758636  0.34741335     0.03000
C853        C  0.19432673  0.31149366  0.35741488    -0.22400
C854        C  0.19532480  0.30438064  0.39152541     0.12100
S855        S  0.18482293  0.30737834  0.45423536    -0.06000
C856        C  0.20167812  0.27520706  0.43947293    -0.09500
C857        C  0.20621883  0.27727992  0.40579422    -0.26100
S858        S  0.17493237  0.34702984  0.30707578    -0.03300
C859        C  0.15683319  0.37666872  0.32217513    -0.16800
C860        C  0.15541868  0.37922996  0.35645655    -0.14800
H861        H  0.16033819  0.36399748  0.42274054     0.20600
H862        H  0.20322364  0.29608967  0.33934869     0.16700
H863        H  0.21587953  0.25839690  0.39212704     0.19200
H864        H  0.14458081  0.39579552  0.37025111     0.12500
C865        C  0.19774063  0.58913117  0.41150011     0.16400
C866        C  0.18378721  0.56215408  0.40569437    -0.32700
C867        C  0.17597973  0.56011376  0.37377226     0.20800
C868        C  0.18200616  0.58348937  0.34865297     0.03000
C869        C  0.19638847  0.60955665  0.35416713    -0.22400
C870        C  0.20388742  0.61203335  0.38615030     0.12100
S871        S  0.20740446  0.59902152  0.44928914    -0.06000
C872        C  0.21964763  0.63455712  0.43060855    -0.09500
C873        C  0.21656292  0.63780655  0.39685981    -0.26100
S874        S  0.16937405  0.57942915  0.31273600    -0.03300
C875        C  0.15592067  0.54583299  0.33170005    -0.16800
C876        C  0.16114783  0.53785435  0.36389321    -0.14800
H877        H  0.17862119  0.54460252  0.42549956     0.20600
H878        H  0.20086948  0.62823271  0.33478177     0.16700
H879        H  0.22258197  0.65898775  0.38117462     0.19200
H880        H  0.15381316  0.51814007  0.37964461     0.12500
C881        C  0.90881586  0.64229293  0.43061822     0.16400
C882        C  0.90224219  0.62628853  0.46056991    -0.32700
C883        C  0.88982508  0.64735061  0.48210856     0.20800
C884        C  0.88439630  0.68266403  0.47412049     0.03000
C885        C  0.89112095  0.69863975  0.44465211    -0.22400
C886        C  0.90327792  0.67765489  0.42318662     0.12100
S887        S  0.92308280  0.62139625  0.39986475    -0.06000
C888        C  0.92110696  0.66071221  0.37686199    -0.09500
C889        C  0.91032257  0.68832112  0.39278796    -0.26100
S890        S  0.86858381  0.70347599  0.50203600    -0.03300
C891        C  0.86913653  0.66439481  0.52526616    -0.16800
C892        C  0.88116824  0.63669924  0.51180181    -0.14800
H893        H  0.90627964  0.59854515  0.46649549     0.20600
H894        H  0.88667400  0.72608797  0.43833565     0.16700
H895        H  0.90734337  0.71482933  0.38231640     0.19200
H896        H  0.88297326  0.61000980  0.52257796     0.12500
C897        C  0.98610026  0.57292141  0.26523393     0.16400
C898        C  0.99891500  0.54271189  0.26253137    -0.32700
C899        C  0.01657592  0.54655494  0.24375221     0.20800
C900        C  0.02095635  0.57850838  0.22722049     0.03000
C901        C  0.00754570  0.60795537  0.22825446    -0.22400
C902        C  0.99028403  0.60462264  0.24817376     0.12100
S903        S  0.96617651  0.57634628  0.29233112    -0.06000
C904        C  0.96358596  0.62102987  0.28067121    -0.09500
C905        C  0.97713984  0.63205504  0.25640949    -0.26100
S906        S  0.04490056  0.58073708  0.21233918    -0.03300
C907        C  0.04904866  0.53847256  0.22895918    -0.16800
C908        C  0.03252359  0.52319553  0.24407949    -0.14800
H909        H  0.99612695  0.51843457  0.27686769     0.20600
H910        H  0.01125517  0.63348105  0.21658827     0.16700
H911        H  0.97815625  0.65945864  0.24695383     0.19200
H912        H  0.03292919  0.49846318  0.25852878     0.12500
C913        C  0.68742851  0.58108184  0.00091811     0.16400
C914        C  0.67312826  0.55411309  0.99850121    -0.32700
C915        C  0.65865434  0.55213942  0.02408626     0.20800
C916        C  0.65797744  0.57659505  0.05038054     0.03000
C917        C  0.67209544  0.60394531  0.05250678    -0.22400
C918        C  0.68697777  0.60514504  0.02751739     0.12100
S919        S  0.70734166  0.58578370  0.97420373    -0.06000
C920        C  0.71541811  0.61991040  0.99964617    -0.09500
C921        C  0.70300723  0.62747280  0.02691589    -0.26100
S922        S  0.64040734  0.56741222  0.08046987    -0.03300
C923        C  0.63442060  0.52946481  0.05795812    -0.16800
C924        C  0.64507620  0.52525981  0.02817256    -0.14800
H925        H  0.67381753  0.53444634  0.97841437     0.20600
H926        H  0.67207039  0.62233686  0.07356228     0.16700
H927        H  0.70586897  0.64753768  0.04586433     0.19200
H928        H  0.64393535  0.50227072  0.01150277     0.12500
C929        C  0.79567558  0.64579252  0.88066466     0.16400
C930        C  0.81129980  0.64429039  0.85692233    -0.32700
C931        C  0.80639287  0.64136399  0.82334214     0.20800
C932        C  0.78679529  0.64037608  0.81373367     0.03000
C933        C  0.77117245  0.64118100  0.83752484    -0.22400
C934        C  0.77609637  0.64370045  0.87113804     0.12100
S935        S  0.79848516  0.65025112  0.92258859    -0.06000
C936        C  0.77303490  0.64817707  0.92746781    -0.09500
C937        C  0.76305437  0.64470116  0.89791269    -0.26100
S938        S  0.78399115  0.63861082  0.77163460    -0.03300
C939        C  0.80952077  0.63864622  0.76690641    -0.16800
C940        C  0.81948316  0.63987761  0.79663682    -0.14800
H941        H  0.82661800  0.64559279  0.86428443     0.20600
H942        H  0.75584758  0.64010760  0.83015492     0.16700
H943        H  0.74706857  0.64337058  0.89610146     0.19200
H944        H  0.83548208  0.64035107  0.79857960     0.12500
C945        C  0.80222712  0.94095170  0.32846929     0.16400
C946        C  0.80110997  0.93440690  0.36266526    -0.32700
C947        C  0.78243486  0.93745558  0.37864649     0.20800
C948        C  0.76558624  0.94731463  0.36157123     0.03000
C949        C  0.76663242  0.95324342  0.32711883    -0.22400
C950        C  0.78532662  0.94948258  0.31096621     0.12100
S951        S  0.82361598  0.93889396  0.30486060    -0.06000
C952        C  0.80965153  0.94839518  0.27069921    -0.09500
C953        C  0.78947717  0.95338696  0.27758744    -0.26100
S954        S  0.74455238  0.95143864  0.38623266    -0.03300
C955        C  0.75863169  0.93890263  0.41960415    -0.16800
C956        C  0.77847978  0.93204858  0.41174601    -0.14800
H957        H  0.81425861  0.92726423  0.37626340     0.20600
H958        H  0.75349415  0.96048376  0.31353820     0.16700
H959        H  0.77850668  0.95971637  0.25921256     0.19200
H960        H  0.78955865  0.92434601  0.42952734     0.12500
C961        C  0.87187299  0.90561173  0.96890390     0.16400
C962        C  0.87634513  0.89238448  0.93695748    -0.32700
C963        C  0.88893951  0.91293903  0.91661925     0.20800
C964        C  0.89679800  0.94531708  0.92748697     0.03000
C965        C  0.89218860  0.95876428  0.95949876    -0.22400
C966        C  0.87958384  0.93804944  0.97996960     0.12100
S967        S  0.85669863  0.88457791  0.99690456    -0.06000
C968        C  0.86062136  0.91981775  0.02407276    -0.09500
C969        C  0.87320966  0.94635637  0.01181924    -0.26100
S970        S  0.91243929  0.96527802  0.89916575    -0.03300
C971        C  0.90829981  0.92947852  0.87259626    -0.16800
C972        C  0.89531567  0.90390717  0.88512341    -0.14800
H973        H  0.87032514  0.86703941  0.92836403     0.20600
H974        H  0.89826397  0.98403832  0.96813411     0.16700
H975        H  0.87706475  0.97075364  0.02512347     0.19200
H976        H  0.89120087  0.87938995  0.87224340     0.12500
C977        C  0.78767337  0.73156659  0.07751432     0.16400
C978        C  0.80077194  0.75555595  0.09224847    -0.32700
C979        C  0.79271290  0.78142047  0.11466917     0.20800
C980        C  0.77257679  0.78284938  0.12279873     0.03000
C981        C  0.75964107  0.75751567  0.10945384    -0.22400
C982        C  0.76762430  0.73227266  0.08630385     0.12100
S983        S  0.79387609  0.70317224  0.04504525    -0.06000
C984        C  0.76917714  0.69225664  0.04315349    -0.09500
C985        C  0.75702568  0.70907870  0.06719348    -0.26100
S986        S  0.76519830  0.82061757  0.14509340    -0.03300
C987        C  0.78952453  0.83417351  0.14377107    -0.16800
C988        C  0.80252540  0.81042768  0.12720245    -0.14800
H989        H  0.81631330  0.75587487  0.08465760     0.20600
H990        H  0.74381613  0.75921614  0.11485241     0.16700
H991        H  0.74102909  0.70661632  0.06891812     0.19200
H992        H  0.81797526  0.81614251  0.12154180     0.12500
C993        C  0.91567206  0.78727018  0.24777007     0.16400
C994        C  0.91424869  0.82191401  0.23332435    -0.32700
C995        C  0.89530353  0.83434008  0.22412667     0.20800
C996        C  0.87878177  0.81269365  0.22846506     0.03000
C997        C  0.88017539  0.77846044  0.24295692    -0.22400
C998        C  0.89885930  0.76654803  0.25283590     0.12100
S999        S  0.93698448  0.76721273  0.26178709    -0.06000
C1000       C  0.92274638  0.73145479  0.27521166    -0.09500
C1001       C  0.90279365  0.73478182  0.26883587    -0.26100
S1002       S  0.85712446  0.83189703  0.21646952    -0.03300
C1003       C  0.87005378  0.87038323  0.20618823    -0.16800
C1004       C  0.89036088  0.86787496  0.21134402    -0.14800
H1005       H  0.92721178  0.83863527  0.23000547     0.20600
H1006       H  0.86713132  0.76207870  0.24699641     0.16700
H1007       H  0.89171516  0.71505282  0.27587314     0.19200
H1008       H  0.90076202  0.88949621  0.20678033     0.12500
C1009       C  0.74494652  0.06072447  0.01389699     0.16400
C1010       C  0.75387700  0.02669976  0.01891192    -0.32700
C1011       C  0.76927649  0.02469548  0.04162260     0.20800
C1012       C  0.77559786  0.05509270  0.05853434     0.03000
C1013       C  0.76652414  0.08898666  0.05381105    -0.22400
C1014       C  0.75108203  0.09095254  0.03125710     0.12100
S1015       S  0.72650944  0.06940946  0.98651843    -0.06000
C1016       C  0.72702764  0.11412112  0.99899746    -0.09500
C1017       C  0.74071838  0.12153513  0.02305933    -0.26100
S1018       S  0.79479384  0.04707334  0.08448699    -0.03300
C1019       C  0.79411950  0.00215553  0.07271770    -0.16800
C1020       C  0.77981252  0.99420666  0.04976221    -0.14800
H1021       H  0.74915478  0.00291839  0.00553938     0.20600
H1022       H  0.77136134  0.11283009  0.06697042     0.16700
H1023       H  0.74331625  0.14816778  0.03342981     0.19200
H1024       H  0.77729440  0.96751339  0.03946876     0.12500
C1025       C  0.99850240  0.22301786  0.96179618     0.16400
C1026       C  0.00703862  0.20290992  0.93525332    -0.32700
C1027       C  0.02455744  0.21599230  0.92036993     0.20800
C1028       C  0.03279662  0.24822322  0.93083200     0.03000
C1029       C  0.02401657  0.26871959  0.95674284    -0.22400
C1030       C  0.00690993  0.25507154  0.97227047     0.12100
S1031       S  0.97902686  0.20913331  0.98625417    -0.06000
C1032       C  0.98273471  0.24623631  0.01146554    -0.09500
C1033       C  0.99779265  0.26874556  0.00048382    -0.26100
S1034       S  0.05481869  0.25821611  0.91175621    -0.03300
C1035       C  0.05322755  0.21822384  0.88970210    -0.16800
C1036       C  0.03617256  0.19870151  0.89642897    -0.14800
H1037       H  0.00089628  0.17726889  0.92771731     0.20600
H1038       H  0.03082971  0.29324702  0.96558158     0.16700
H1039       H  0.00281338  0.29235547  0.01380098     0.19200
H1040       H  0.03288722  0.17263506  0.88550739     0.12500
C1041       C  0.00872256  0.31141419  0.16561157     0.16400
C1042       C  0.02266466  0.31571229  0.19054773    -0.32700
C1043       C  0.03532498  0.34552882  0.18812877     0.20800
C1044       C  0.03358615  0.37078288  0.16286386     0.03000
C1045       C  0.01964094  0.36656013  0.13807941    -0.22400
C1046       C  0.00756908  0.33601643  0.13973764     0.12100
S1047       S  0.99351994  0.27499623  0.16184337    -0.06000
C1048       C  0.98630091  0.29235883  0.12430038    -0.09500
C1049       C  0.99475299  0.32521840  0.11599972    -0.26100
S1050       S  0.05009765  0.40527309  0.16432024    -0.03300
C1051       C  0.05993233  0.38481353  0.19861451    -0.16800
C1052       C  0.05066861  0.35323966  0.20859789    -0.14800
H1053       H  0.02409154  0.29596696  0.21021526     0.20600
H1054       H  0.01872234  0.38558033  0.11772749     0.16700
H1055       H  0.99252621  0.33936364  0.09283348     0.19200
H1056       H  0.05477887  0.33716850  0.22987283     0.12500
C1057       C  0.92074713  0.15035025  0.12678477     0.16400
C1058       C  0.91124361  0.12569120  0.14804108    -0.32700
C1059       C  0.90098823  0.09712162  0.13346665     0.20800
C1060       C  0.89988981  0.09364942  0.09925820     0.03000
C1061       C  0.90938028  0.11830748  0.07800381    -0.22400
C1062       C  0.91991522  0.14648403  0.09258771     0.12100
S1063       S  0.93470758  0.18588499  0.13950671    -0.06000
C1064       C  0.93981698  0.19517910  0.09829539    -0.09500
C1065       C  0.93078273  0.17215665  0.07612003    -0.26100
S1066       S  0.88636890  0.05759517  0.08650562    -0.03300
C1067       C  0.88241551  0.04666113  0.12771752    -0.16800
C1068       C  0.89112125  0.07005164  0.14993185    -0.14800
H1069       H  0.91203865  0.12835900  0.17476128     0.20600
H1070       H  0.90876518  0.11542602  0.05127442     0.16700
H1071       H  0.93248044  0.17353350  0.04933235     0.19200
H1072       H  0.88995771  0.06777811  0.17671390     0.12500
loop_ 
_geom_bond_atom_site_label_1 
_geom_bond_atom_site_label_2 
_geom_bond_distance 
_geom_bond_site_symmetry_2 
_ccdc_geom_bond_type 
C1            N2   1.361       .  A
C1            N6   1.358       .  A
C1         C1064   1.473       .  S
N2            C3   1.360       .  A
C3            N4   1.357       .  A
C3         C1048   1.469       .  S
N4            C5   1.356       .  A
C5            N6   1.355       .  A
C5         C1032   1.471       .  S
O7          Ni13   1.903       .  S
O7           C28   1.261       .  A
O8          Ni31   1.894   1_545  S
O8           C17   1.267       .  A
O9          Ni13   1.907       .  S
O9          Ni31   1.892       .  S
O9          Ni25   1.921       .  S
O9           H32   0.967       .  S
C10         C952   1.472       .  S
C10          O27   1.272       .  A
C10          O19   1.279       .  A
O11         Ni30   1.946   1_545  S
O11          C17   1.278       .  A
O12         Ni30   1.925       .  S
O12          C14   1.272       .  A
Ni13         O16   1.910       .  S
Ni13         O18   1.899       .  S
C14        C1003   1.474       .  S
C14          O24   1.270       .  A
O15         Ni31   1.932       .  S
O15          C21   1.280       .  A
O16          C21   1.276       .  A
C17        C1067   1.474       .  S
O18          C20   1.266       .  A
O19         Ni30   1.948       .  S
C20        C1019   1.467   1_565  S
C20          O26   1.270       .  A
C21         C968   1.471       .  S
H22          O23   0.967       .  S
O23         Ni31   1.922       .  S
O23         Ni25   1.909       .  S
O23         Ni30   1.916       .  S
O24         Ni25   1.920       .  S
Ni25         O29   1.925       .  S
Ni25         O27   1.906       .  S
O26         Ni31   1.923       .  S
C28         C987   1.462       .  S
C28          O29   1.264       .  A
C33          N34   1.356   1_556  A
C33          N38   1.358       .  A
C33         C920   1.471       .  S
N34          C35   1.356       .  A
C35          N36   1.361   1_554  A
C35         C984   1.473       .  S
N36          C37   1.362       .  A
C37          N38   1.360       .  A
C37         C936   1.477       .  S
C39          N40   1.360       .  A
C39          N44   1.366       .  A
C39         C904   1.470       .  S
N40          C41   1.352       .  A
C41          N42   1.352       .  A
C41        C1000   1.461       .  S
N42          C43   1.357       .  A
C43          N44   1.362       .  A
C43         C888   1.478       .  S
O45         Ni51   1.928       .  S
O45          C66   1.274       .  A
O46         Ni69   1.873       .  S
O46          C55   1.259       .  A
O47         Ni51   1.909       .  S
O47         Ni69   1.892       .  S
O47         Ni63   1.902       .  S
O47          H70   0.966       .  S
C48        C1051   1.463       .  S
C48          O65   1.269       .  A
C48          O57   1.276       .  A
O49         Ni68   1.946       .  S
O49          C55   1.273       .  A
O50         Ni68   1.903       .  S
O50          C52   1.271       .  A
Ni51         O54   1.926       .  S
Ni51         O56   1.927       .  S
C52         C824   1.474       .  S
C52          O62   1.275       .  A
O53         Ni69   1.908       .  S
O53          C59   1.272       .  A
O54          C59   1.277       .  A
C55         C859   1.463       .  S
O56          C58   1.270       .  A
O57         Ni68   1.934       .  S
C58         C843   1.475       .  S
C58          O64   1.263       .  A
C59         C875   1.457       .  S
H60          O61   0.966       .  S
O61         Ni69   1.904       .  S
O61         Ni63   1.906       .  S
O61         Ni68   1.910       .  S
O62         Ni63   1.934       .  S
Ni63         O67   1.902       .  S
Ni63         O65   1.901       .  S
O64         Ni69   1.901       .  S
C66         C907   1.458       .  S
C66          O67   1.267       .  A
C71          N72   1.358       .  A
C71          N76   1.364       .  A
C71         C792   1.474       .  S
N72          C73   1.356       .  A
C73          N74   1.354       .  A
C73         C856   1.464       .  S
N74          C75   1.354       .  A
C75          N76   1.361       .  A
C75         C811   1.469       .  S
C77          N78   1.353   1_655  A
C77          N82   1.358   1_655  A
C77         C776   1.468       .  S
N78          C79   1.355       .  A
C79          N80   1.361       .  A
C79         C763   1.472       .  S
N80          C81   1.363       .  A
C81          N82   1.360       .  A
C81         C840   1.474       .  S
O83         Ni89   1.949       .  S
O83         C104   1.279       .  A
O84        Ni107   1.933       .  S
O84          C93   1.268       .  A
O85         Ni89   1.912       .  S
O85        Ni107   1.913       .  S
O85        Ni101   1.927       .  S
O85         H108   0.966       .  S
C86         C891   1.474       .  S
C86         O103   1.283       .  A
C86          O95   1.277       .  A
O87        Ni106   1.895       .  S
O87          C93   1.262       .  A
O88        Ni106   1.907       .  S
O88          C90   1.266       .  A
Ni89         O92   1.949       .  S
Ni89         O94   1.919       .  S
C90         C744   1.472       .  S
C90         O100   1.269       .  A
O91        Ni107   1.911       .  S
O91          C97   1.273       .  A
O92          C97   1.280       .  A
C93         C712   1.464       .  S
O94          C96   1.272       .  A
O95        Ni106   1.908       .  S
C96         C728   1.483       .  S
C96         O102   1.276       .  A
C97         C939   1.479       .  S
H98          O99   0.966       .  S
O99        Ni107   1.926       .  S
O99        Ni101   1.881       .  S
O99        Ni106   1.897       .  S
O100       Ni101   1.927       .  S
Ni101       O105   1.886       .  S
Ni101       O103   1.944       .  S
O102       Ni107   1.942       .  S
C104        C779   1.471       .  S
C104        O105   1.265       .  A
C109        N110   1.362       .  A
C109        N114   1.361       .  A
C109        C699   1.473       .  S
N110        C111   1.361       .  A
C111        N112   1.358       .  A
C111        C715   1.475       .  S
N112        C113   1.356       .  A
C113        N114   1.356       .  A
C113        C955   1.473       .  S
C115        N116   1.369       .  A
C115        N120   1.359       .  A
C115        C680   1.483       .  S
N116        C117   1.367       .  A
C117        N118   1.356       .  A
C117        C731   1.475       .  S
N118        C119   1.354       .  A
C119        N120   1.352       .  A
C119        C971   1.471       .  S
O121       Ni127   1.942       .  S
O121        C142   1.277       .  A
O122       Ni145   1.932       .  S
O122        C131   1.271       .  A
O123       Ni127   1.905       .  S
O123       Ni145   1.918       .  S
O123       Ni139   1.935       .  S
O123        H146   0.968       .  S
C124       C1035   1.470       .  S
C124        O141   1.284       .  A
C124        O133   1.277       .  A
O125       Ni144   1.907       .  S
O125        C131   1.265       .  A
O126       Ni144   1.906       .  S
O126        C128   1.265       .  A
Ni127       O130   1.950       .  S
Ni127       O132   1.909       .  S
C128        C664   1.479       .  S
C128        O138   1.273       .  A
O129       Ni145   1.904       .  S
O129        C135   1.269       .  A
O130        C135   1.278       .  A
C131        C651   1.471       .  S
O132        C134   1.272       .  A
O133       Ni144   1.904       .  S
C134        C760   1.466       .  S
C134        O140   1.278       .  A
C135        C808   1.473       .  S
H136        O137   0.967       .  S
O137       Ni145   1.902       .  S
O137       Ni139   1.879       .  S
O137       Ni144   1.885       .  S
O138       Ni139   1.938       .  S
Ni139       O143   1.905       .  S
Ni139       O141   1.942       .  S
O140       Ni145   1.951       .  S
C142        C683   1.478       .  S
C142        O143   1.271       .  A
C147        N148   1.357       .  A
C147        N152   1.356       .  A
C147        C635   1.463       .  S
N148        C149   1.355       .  A
C149        N150   1.359       .  A
C149        C648   1.468       .  S
N150        C151   1.359       .  A
C151        N152   1.355       .  A
C151        C827   1.466   1_556  S
C153        N154   1.361       .  A
C153        N158   1.369       .  A
C153        C616   1.474       .  S
N154        C155   1.354       .  A
C155        N156   1.348       .  A
C155        C587   1.463       .  S
N156        C157   1.350       .  A
C157        N158   1.363       .  A
C157        C603   1.471       .  S
O159       Ni165   1.934       .  S
O159        C180   1.275       .  A
O160       Ni183   1.935       .  S
O160        C169   1.271       .  A
O161       Ni165   1.903       .  S
O161       Ni183   1.920       .  S
O161       Ni177   1.936       .  S
O161        H184   0.966       .  S
C162        C536   1.473       .  S
C162        O179   1.285       .  A
C162        O171   1.277       .  A
O163       Ni182   1.901       .  S
O163        C169   1.263       .  A
O164       Ni182   1.899       .  S
O164        C166   1.264       .  A
Ni165       O168   1.942       .  S
Ni165       O170   1.901       .  S
C166        C923   1.471       .  S
C166        O176   1.270       .  A
O167       Ni183   1.913       .  S
O167        C173   1.271       .  A
O168        C173   1.277       .  A
C169        C552   1.471       .  S
O170        C172   1.270       .  A
O171       Ni182   1.903       .  S
C172        C568   1.471       .  S
C172        O178   1.279       .  A
C173        C520   1.478       .  S
H174        O175   0.966       .  S
O175       Ni183   1.911       .  S
O175       Ni177   1.879       .  S
O175       Ni182   1.882       .  S
O176       Ni177   1.932       .  S
Ni177       O181   1.899       .  S
Ni177       O179   1.947       .  S
O178       Ni183   1.952       .  S
C180        C619   1.472       .  S
C180        O181   1.269       .  A
C185        N186   1.358       .  A
C185        N190   1.354   1_556  A
C185       C1016   1.465       .  S
N186        C187   1.360       .  A
C187        N188   1.361       .  A
C187        C504   1.468       .  S
N188        C189   1.358       .  A
C189        N190   1.351   1_556  A
C189        C555   1.463   1_556  S
C191        N192   1.362       .  A
C191        N196   1.359       .  A
C191        C488   1.467       .  S
N192        C193   1.359       .  A
C193        N194   1.355       .  A
C193        C571   1.465       .  S
N194        C195   1.355       .  A
C195        N196   1.354       .  A
C195        C472   1.471       .  S
O197       Ni203   1.933       .  S
O197        C218   1.273       .  A
O198       Ni221   1.939       .  S
O198        C207   1.271       .  A
O199       Ni203   1.904       .  S
O199       Ni221   1.917   1_545  S
O199       Ni215   1.920   1_545  S
O199        H222   0.967       .  S
C200        C440   1.465       .  S
C200        O217   1.281       .  A
C200        O209   1.277       .  A
O201       Ni220   1.893       .  S
O201        C207   1.261       .  A
O202       Ni220   1.900       .  S
O202        C204   1.265   1_565  A
Ni203       O206   1.938   1_545  S
Ni203       O208   1.906   1_545  S
C204        C795   1.476       .  S
C204        O214   1.271       .  A
O205       Ni221   1.912       .  S
O205        C211   1.274       .  A
O206        C211   1.278       .  A
C207        C456   1.473       .  S
O208        C210   1.268       .  A
O209       Ni220   1.901       .  S
C210        C600   1.474       .  S
C210        O216   1.277       .  A
C211        C427   1.475       .  S
H212        O213   0.967       .  S
O213       Ni221   1.915       .  S
O213       Ni215   1.880       .  S
O213       Ni220   1.885       .  S
O214       Ni215   1.936   1_545  S
Ni215       O219   1.887   1_565  S
Ni215       O217   1.940       .  S
O216       Ni221   1.948       .  S
C218        C491   1.465       .  S
C218        O219   1.267       .  A
C223        N224   1.360       .  A
C223        N228   1.356       .  A
C223        C872   1.471       .  S
N224        C225   1.361       .  A
C225        N226   1.362       .  A
C225        C408   1.473       .  S
N226        C227   1.357       .  A
C227        N228   1.353       .  A
C227        C459   1.470       .  S
C229        N230   1.369       .  A
C229        N234   1.361       .  A
C229        C392   1.484       .  S
N230        C231   1.366       .  A
C231        N232   1.356       .  A
C231        C376   1.479       .  S
N232        C233   1.355       .  A
C233        N234   1.355       .  A
C233        C539   1.474       .  S
O235       Ni241   1.918       .  S
O235        C256   1.267       .  A
O236       Ni259   1.898       .  S
O236        C245   1.264       .  A
O237       Ni241   1.905       .  S
O237       Ni259   1.897       .  S
O237       Ni253   1.907       .  S
O237        H260   0.966       .  S
C238        C411   1.473       .  S
C238        O255   1.280       .  A
C238        O247   1.278       .  A
O239       Ni258   1.948       .  S
O239        C245   1.276       .  A
O240       Ni258   1.911       .  S
O240        C242   1.271       .  A
Ni241       O244   1.926       .  S
Ni241       O246   1.897       .  S
C242        C360   1.467       .  S
C242        O252   1.272       .  A
O243       Ni259   1.897       .  S
O243        C249   1.271       .  A
O244        C249   1.278       .  A
C245        C395   1.478       .  S
O246        C248   1.265       .  A
O247       Ni258   1.922       .  S
C248        C632   1.457       .  S
C248        O254   1.268       .  A
C249        C584   1.462       .  S
H250        O251   0.966       .  S
O251       Ni259   1.902       .  S
O251       Ni253   1.908       .  S
O251       Ni258   1.896       .  S
O252       Ni253   1.926       .  S
Ni253       O257   1.926       .  S
Ni253       O255   1.930       .  S
O254       Ni259   1.919       .  S
C256        C344   1.464       .  S
C256        O257   1.272       .  A
C261        N262   1.364       .  A
C261        N266   1.366       .  A
C261        C667   1.480   1_565  S
N262        C263   1.357       .  A
C263        N264   1.352       .  A
C263        C347   1.474       .  S
N264        C265   1.355       .  A
C265        N266   1.363       .  A
C265        C424   1.475   1_556  S
C267        N268   1.361       .  A
C267        N272   1.362       .  A
C267        C328   1.469       .  S
N268        C269   1.357       .  A
C269        N270   1.354       .  A
C269        C363   1.466       .  S
N270        C271   1.353       .  A
C271        N272   1.356       .  A
C271        C443   1.467       .  S
O273       Ni279   1.914       .  S
O273        C294   1.265       .  A
O274       Ni297   1.886       .  S
O274        C283   1.265       .  A
O275       Ni279   1.897       .  S
O275       Ni297   1.885       .  S
O275       Ni291   1.908       .  S
O275        H298   0.978       .  S
C276        C507   1.472       .  S
C276        O293   1.273       .  A
C276        O285   1.278       .  A
O277       Ni296   1.948       .  S
O277        C283   1.278       .  A
O278       Ni296   1.921       .  S
O278        C280   1.274       .  A
Ni279       O282   1.917       .  S
Ni279       O284   1.903       .  S
C280        C379   1.484       .  S
C280        O290   1.275       .  A
O281       Ni297   1.937       .  S
O281        C287   1.282       .  A
O282        C287   1.280       .  A
C283        C331   1.469       .  S
O284        C286   1.265       .  A
O285       Ni296   1.931       .  S
C286        C696   1.475       .  S
C286        O292   1.269       .  A
C287        C475   1.478       .  S
H288        O289   0.956       .  S
O289       Ni297   1.917       .  S
O289       Ni291   1.910       .  S
O289       Ni296   1.905       .  S
O290       Ni291   1.938       .  S
Ni291       O295   1.918       .  S
Ni291       O293   1.910       .  S
O292       Ni297   1.931       .  S
C294        C315   1.456       .  S
C294        O295   1.268       .  A
C299        N300   1.360       .  A
C299        N304   1.364       .  A
C299        C747   1.474       .  S
N300        C301   1.354       .  A
C301        N302   1.354       .  A
C301        C312   1.469       .  S
N302        C303   1.356       .  A
C303        N304   1.362       .  A
C303        C523   1.474       .  S
C305        S311   1.700       .  A
C305        C310   1.387       .  A
C305        C306   1.395       .  A
C306        C307   1.397       .  A
C306        H317   1.083       .  S
C307        C316   1.363       .  A
C307        C308   1.386       .  A
C308        S314   1.711       .  A
C308        C309   1.405       .  A
C309        C310   1.406       .  A
C309        H318   1.083       .  S
C310        C313   1.373       .  A
S311        C312   1.719       .  A
C312        C313   1.389       .  A
C313        H319   1.083       .  S
S314        C315   1.724       .  A
C315        C316   1.380       .  A
C316        H320   1.084       .  S
C321        S327   1.709       .  A
C321        C326   1.387       .  A
C321        C322   1.404   1_565  A
C322        C323   1.404       .  A
C322        H333   1.083   1_545  S
C323        C332   1.374       .  A
C323        C324   1.388       .  A
C324        S330   1.699       .  A
C324        C325   1.397       .  A
C325        C326   1.398   1_545  A
C325        H334   1.083       .  S
C326        C329   1.366       .  A
S327        C328   1.724       .  A
C328        C329   1.384       .  A
C329        H335   1.083       .  S
S330        C331   1.722       .  A
C331        C332   1.387       .  A
C332        H336   1.083       .  S
C337        S343   1.708       .  A
C337        C342   1.386       .  A
C337        C338   1.404       .  A
C338        C339   1.404       .  A
C338        H349   1.083       .  S
C339        C348   1.375       .  A
C339        C340   1.387       .  A
C340        S346   1.705       .  A
C340        C341   1.402       .  A
C341        C342   1.403       .  A
C341        H350   1.083       .  S
C342        C345   1.372       .  A
S343        C344   1.722       .  A
C344        C345   1.387       .  A
C345        H351   1.084       .  S
S346        C347   1.724       .  A
C347        C348   1.387       .  A
C348        H352   1.083       .  S
C353        S359   1.699       .  A
C353        C358   1.388       .  A
C353        C354   1.395       .  A
C354        C355   1.396       .  A
C354        H365   1.083       .  S
C355        C364   1.363       .  A
C355        C356   1.387       .  A
C356        S362   1.713       .  A
C356        C357   1.405       .  A
C357        C358   1.406       .  A
C357        H366   1.083       .  S
C358        C361   1.374       .  A
S359        C360   1.719       .  A
C360        C361   1.389       .  A
C361        H367   1.083       .  S
S362        C363   1.723       .  A
C363        C364   1.382       .  A
C364        H368   1.084       .  S
C369        S375   1.721       .  A
C369        C374   1.386       .  A
C369        C370   1.411       .  A
C370        C371   1.412       .  A
C370        H381   1.083       .  S
C371        C380   1.382       .  A
C371        C372   1.386       .  A
C372        S378   1.706       .  A
C372        C373   1.401       .  A
C373        C374   1.402       .  A
C373        H382   1.083       .  S
C374        C377   1.370       .  A
S375        C376   1.727       .  A
C376        C377   1.387       .  A
C377        H383   1.083       .  S
S378        C379   1.723       .  A
C379        C380   1.394       .  A
C380        H384   1.083       .  S
C385        S391   1.714       .  A
C385        C390   1.386       .  A
C385        C386   1.405       .  A
C386        C387   1.405       .  A
C386        H397   1.083       .  S
C387        C396   1.375       .  A
C387        C388   1.387       .  A
C388        S394   1.710       .  A
C388        C389   1.404       .  A
C389        C390   1.405       .  A
C389        H398   1.083       .  S
C390        C393   1.373       .  A
S391        C392   1.724       .  A
C392        C393   1.392       .  A
C393        H399   1.083       .  S
S394        C395   1.726       .  A
C395        C396   1.388       .  A
C396        H400   1.083       .  S
C401        S407   1.710       .  A
C401        C406   1.387       .  A
C401        C402   1.403       .  A
C402        C403   1.404       .  A
C402        H413   1.083       .  S
C403        C412   1.370       .  A
C403        C404   1.387       .  A
C404        S410   1.709       .  A
C404        C405   1.400       .  A
C405        C406   1.402       .  A
C405        H414   1.083       .  S
C406        C409   1.369       .  A
S407        C408   1.724       .  A
C408        C409   1.386       .  A
C409        H415   1.083       .  S
S410        C411   1.721       .  A
C411        C412   1.389       .  A
C412        H416   1.083       .  S
C417        S423   1.698       .  A
C417        C422   1.387       .  A
C417        C418   1.396       .  A
C418        C419   1.397       .  A
C418        H429   1.083       .  S
C419        C428   1.365       .  A
C419        C420   1.386       .  A
C420        S426   1.715       .  A
C420        C421   1.408       .  A
C421        C422   1.409       .  A
C421        H430   1.083       .  S
C422        C425   1.379       .  A
S423        C424   1.722       .  A
C424        C425   1.391       .  A
C425        H431   1.083       .  S
S426        C427   1.727       .  A
C427        C428   1.385       .  A
C428        H432   1.083       .  S
C433        S439   1.714       .  A
C433        C438   1.387       .  A
C433        C434   1.406       .  A
C434        C435   1.407       .  A
C434        H445   1.083       .  S
C435        C444   1.374       .  A
C435        C436   1.388       .  A
C436        S442   1.697       .  A
C436        C437   1.393       .  A
C437        C438   1.394       .  A
C437        H446   1.083       .  S
C438        C441   1.360       .  A
S439        C440   1.724       .  A
C440        C441   1.381       .  A
C441        H447   1.084       .  S
S442        C443   1.718       .  A
C443        C444   1.389       .  A
C444        H448   1.083       .  S
C449        S455   1.717       .  A
C449        C454   1.386       .  A
C449        C450   1.403       .  A
C450        C451   1.406       .  A
C450        H461   1.083       .  S
C451        C460   1.369       .  A
C451        C452   1.387       .  A
C452        S458   1.709       .  A
C452        C453   1.398       .  A
C453        C454   1.401       .  A
C453        H462   1.083       .  S
C454        C457   1.363       .  A
S455        C456   1.724       .  A
C456        C457   1.388       .  A
C457        H463   1.084       .  S
S458        C459   1.720       .  A
C459        C460   1.388       .  A
C460        H464   1.083       .  S
C465        S471   1.699       .  A
C465        C470   1.387       .  A
C465        C466   1.394       .  A
C466        C467   1.396       .  A
C466        H477   1.083       .  S
C467        C476   1.363       .  A
C467        C468   1.386       .  A
C468        S474   1.717       .  A
C468        C469   1.408       .  A
C469        C470   1.409       .  A
C469        H478   1.083       .  S
C470        C473   1.375       .  A
S471        C472   1.718       .  A
C472        C473   1.391       .  A
C473        H479   1.083       .  S
S474        C475   1.729       .  A
C475        C476   1.385       .  A
C476        H480   1.083       .  S
C481        S487   1.699       .  A
C481        C486   1.388       .  A
C481        C482   1.396       .  A
C482        C483   1.396       .  A
C482        H493   1.083       .  S
C483        C492   1.364       .  A
C483        C484   1.387       .  A
C484        S490   1.706       .  A
C484        C485   1.402       .  A
C485        C486   1.403       .  A
C485        H494   1.083       .  S
C486        C489   1.371       .  A
S487        C488   1.721       .  A
C488        C489   1.387       .  A
C489        H495   1.083       .  S
S490        C491   1.724       .  A
C491        C492   1.382       .  A
C492        H496   1.083       .  S
C497        S503   1.707       .  A
C497        C502   1.387       .  A
C497        C498   1.401       .  A
C498        C499   1.402       .  A
C498        H509   1.083       .  S
C499        C508   1.370       .  A
C499        C500   1.387       .  A
C500        S506   1.707       .  A
C500        C501   1.402       .  A
C501        C502   1.403       .  A
C501        H510   1.083       .  S
C502        C505   1.371       .  A
S503        C504   1.721       .  A
C504        C505   1.386       .  A
C505        H511   1.083       .  S
S506        C507   1.724       .  A
C507        C508   1.386       .  A
C508        H512   1.083       .  S
C513        S519   1.716       .  A
C513        C518   1.386       .  A
C513        C514   1.408       .  A
C514        C515   1.408       .  A
C514        H525   1.083       .  S
C515        C524   1.378       .  A
C515        C516   1.387       .  A
C516        S522   1.701       .  A
C516        C517   1.398       .  A
C517        C518   1.399       .  A
C517        H526   1.083       .  S
C518        C521   1.368       .  A
S519        C520   1.727       .  A
C520        C521   1.386       .  A
C521        H527   1.083       .  S
S522        C523   1.722       .  A
C523        C524   1.390       .  A
C524        H528   1.083       .  S
C529        S535   1.697   1_556  A
C529        C534   1.387       .  A
C529        C530   1.396       .  A
C530        C531   1.397       .  A
C530        H541   1.083       .  S
C531        C540   1.366       .  A
C531        C532   1.386       .  A
C532        S538   1.712       .  A
C532        C533   1.407       .  A
C533        C534   1.407       .  A
C533        H542   1.083       .  S
C534        C537   1.377   1_556  A
S535        C536   1.722       .  A
C536        C537   1.389       .  A
C537        H543   1.083       .  S
S538        C539   1.726       .  A
C539        C540   1.384       .  A
C540        H544   1.083       .  S
C545        S551   1.717       .  A
C545        C550   1.386       .  A
C545        C546   1.403       .  A
C546        C547   1.406       .  A
C546        H557   1.083       .  S
C547        C556   1.367       .  A
C547        C548   1.387       .  A
C548        S554   1.708   1_554  A
C548        C549   1.395       .  A
C549        C550   1.399       .  A
C549        H558   1.083       .  S
C550        C553   1.360       .  A
S551        C552   1.724       .  A
C552        C553   1.386       .  A
C553        H559   1.084       .  S
S554        C555   1.716   1_556  A
C555        C556   1.387       .  A
C556        H560   1.083       .  S
C561        S567   1.703       .  A
C561        C566   1.387       .  A
C561        C562   1.401       .  A
C562        C563   1.401       .  A
C562        H573   1.083       .  S
C563        C572   1.372       .  A
C563        C564   1.388       .  A
C564        S570   1.704       .  A
C564        C565   1.402       .  A
C565        C566   1.402       .  A
C565        H574   1.083       .  S
C566        C569   1.373       .  A
S567        C568   1.723       .  A
C568        C569   1.386       .  A
C569        H575   1.083       .  S
S570        C571   1.721       .  A
C571        C572   1.384       .  A
C572        H576   1.083       .  S
C577        S583   1.705       .  A
C577        C582   1.387       .  A
C577        C578   1.401       .  A
C578        C579   1.402   1_556  A
C578        H589   1.083       .  S
C579        C588   1.370       .  A
C579        C580   1.388       .  A
C580        S586   1.694       .  A
C580        C581   1.393       .  A
C581        C582   1.394   1_554  A
C581        H590   1.083       .  S
C582        C585   1.360       .  A
S583        C584   1.723       .  A
C584        C585   1.381       .  A
C585        H591   1.083       .  S
S586        C587   1.721       .  A
C587        C588   1.385       .  A
C588        H592   1.083       .  S
C593        S599   1.706       .  A
C593        C598   1.387       .  A
C593        C594   1.397       .  A
C594        C595   1.400       .  A
C594        H605   1.083       .  S
C595        C604   1.363       .  A
C595        C596   1.386       .  A
C596        S602   1.719       .  A
C596        C597   1.407       .  A
C597        C598   1.409       .  A
C597        H606   1.083       .  S
C598        C601   1.374       .  A
S599        C600   1.720       .  A
C600        C601   1.391       .  A
C601        H607   1.083       .  S
S602        C603   1.725       .  A
C603        C604   1.385       .  A
C604        H608   1.084       .  S
C609        S615   1.705       .  A
C609        C614   1.387       .  A
C609        C610   1.403       .  A
C610        C611   1.403       .  A
C610        H621   1.083       .  S
C611        C620   1.372       .  A
C611        C612   1.387       .  A
C612        S618   1.705       .  A
C612        C613   1.401       .  A
C613        C614   1.401       .  A
C613        H622   1.083       .  S
C614        C617   1.373       .  A
S615        C616   1.726       .  A
C616        C617   1.385       .  A
C617        H623   1.083       .  S
S618        C619   1.723       .  A
C619        C620   1.388       .  A
C620        H624   1.083       .  S
C625        S631   1.701       .  A
C625        C630   1.388       .  A
C625        C626   1.396       .  A
C626        C627   1.398       .  A
C626        H637   1.083       .  S
C627        C636   1.363       .  A
C627        C628   1.387       .  A
C628        S634   1.703       .  A
C628        C629   1.398       .  A
C629        C630   1.400       .  A
C629        H638   1.083       .  S
C630        C633   1.366       .  A
S631        C632   1.719       .  A
C632        C633   1.382       .  A
C633        H639   1.083       .  S
S634        C635   1.722       .  A
C635        C636   1.383       .  A
C636        H640   1.083       .  S
C641        S647   1.704       .  A
C641        C646   1.387       .  A
C641        C642   1.394       .  A
C642        C643   1.398       .  A
C642        H653   1.083       .  S
C643        C652   1.360       .  A
C643        C644   1.386       .  A
C644        S650   1.718       .  A
C644        C645   1.405       .  A
C645        C646   1.408       .  A
C645        H654   1.083       .  S
C646        C649   1.372       .  A
S647        C648   1.718       .  A
C648        C649   1.389       .  A
C649        H655   1.083       .  S
S650        C651   1.725       .  A
C651        C652   1.385       .  A
C652        H656   1.084       .  S
C657        S663   1.710       .  A
C657        C662   1.386       .  A
C657        C658   1.402       .  A
C658        C659   1.403       .  A
C658        H669   1.083       .  S
C659        C668   1.371   1_545  A
C659        C660   1.386       .  A
C660        S666   1.714       .  A
C660        C661   1.405       .  A
C661        C662   1.407       .  A
C661        H670   1.083       .  S
C662        C665   1.374       .  A
S663        C664   1.722       .  A
C664        C665   1.392       .  A
C665        H671   1.083       .  S
S666        C667   1.726       .  A
C667        C668   1.388   1_545  A
C668        H672   1.083       .  S
C673        S679   1.718       .  A
C673        C678   1.385   1_565  A
C673        C674   1.406   1_665  A
C674        C675   1.408       .  A
C674        H685   1.083   1_545  S
C675        C684   1.375       .  A
C675        C676   1.387       .  A
C676        S682   1.711       .  A
C676        C677   1.402   1_455  A
C677        C678   1.404       .  A
C677        H686   1.083       .  S
C678        C681   1.369   1_545  A
S679        C680   1.725       .  A
C680        C681   1.391       .  A
C681        H687   1.083   1_565  S
S682        C683   1.724       .  A
C683        C684   1.390       .  A
C684        H688   1.083       .  S
C689        S695   1.713       .  A
C689        C694   1.386       .  A
C689        C690   1.405       .  A
C690        C691   1.406       .  A
C690        H701   1.083   1_545  S
C691        C700   1.375   1_545  A
C691        C692   1.387       .  A
C692        S698   1.704       .  A
C692        C693   1.399       .  A
C693        C694   1.400       .  A
C693        H702   1.083       .  S
C694        C697   1.368       .  A
S695        C696   1.725       .  A
C696        C697   1.386       .  A
C697        H703   1.083       .  S
S698        C699   1.722   1_545  A
C699        C700   1.389       .  A
C700        H704   1.083       .  S
C705        S711   1.717       .  A
C705        C710   1.387       .  A
C705        C706   1.406       .  A
C706        C707   1.408       .  A
C706        H717   1.083       .  S
C707        C716   1.375       .  A
C707        C708   1.387       .  A
C708        S714   1.702       .  A
C708        C709   1.397       .  A
C709        C710   1.398       .  A
C709        H718   1.083       .  S
C710        C713   1.363       .  A
S711        C712   1.722       .  A
C712        C713   1.383       .  A
C713        H719   1.084       .  S
S714        C715   1.722       .  A
C715        C716   1.390       .  A
C716        H720   1.083       .  S
C721        S727   1.716       .  A
C721        C726   1.386       .  A
C721        C722   1.410       .  A
C722        C723   1.410       .  A
C722        H733   1.083       .  S
C723        C732   1.382       .  A
C723        C724   1.387       .  A
C724        S730   1.703       .  A
C724        C725   1.401       .  A
C725        C726   1.401       .  A
C725        H734   1.083       .  S
C726        C729   1.372       .  A
S727        C728   1.729       .  A
C728        C729   1.388       .  A
C729        H735   1.083       .  S
S730        C731   1.722       .  A
C731        C732   1.391       .  A
C732        H736   1.083       .  S
C737        S743   1.709       .  A
C737        C742   1.387       .  A
C737        C738   1.401       .  A
C738        C739   1.403       .  A
C738        H749   1.083       .  S
C739        C748   1.368       .  A
C739        C740   1.386       .  A
C740        S746   1.710       .  A
C740        C741   1.402       .  A
C741        C742   1.404       .  A
C741        H750   1.083       .  S
C742        C745   1.369       .  A
S743        C744   1.722       .  A
C744        C745   1.388       .  A
C745        H751   1.083       .  S
S746        C747   1.723       .  A
C747        C748   1.388       .  A
C748        H752   1.083       .  S
C753        S759   1.707       .  A
C753        C758   1.387       .  A
C753        C754   1.403       .  A
C754        C755   1.403       .  A
C754        H765   1.083       .  S
C755        C764   1.374       .  A
C755        C756   1.387       .  A
C756        S762   1.701       .  A
C756        C757   1.400       .  A
C757        C758   1.400       .  A
C757        H766   1.083       .  S
C758        C761   1.369       .  A
S759        C760   1.723       .  A
C760        C761   1.384       .  A
C761        H767   1.083       .  S
S762        C763   1.723       .  A
C763        C764   1.387       .  A
C764        H768   1.083       .  S
C769        S775   1.704       .  A
C769        C774   1.387       .  A
C769        C770   1.401       .  A
C770        C771   1.401       .  A
C770        H781   1.083       .  S
C771        C780   1.372       .  A
C771        C772   1.387       .  A
C772        S778   1.704       .  A
C772        C773   1.401       .  A
C773        C774   1.401       .  A
C773        H782   1.083       .  S
C774        C777   1.371       .  A
S775        C776   1.722       .  A
C776        C777   1.385       .  A
C777        H783   1.083       .  S
S778        C779   1.724       .  A
C779        C780   1.386       .  A
C780        H784   1.083       .  S
C785        S791   1.705       .  A
C785        C790   1.387       .  A
C785        C786   1.397       .  A
C786        C787   1.399       .  A
C786        H797   1.083       .  S
C787        C796   1.364       .  A
C787        C788   1.386       .  A
C788        S794   1.716       .  A
C788        C789   1.406       .  A
C789        C790   1.408       .  A
C789        H798   1.083       .  S
C790        C793   1.372       .  A
S791        C792   1.720       .  A
C792        C793   1.392       .  A
C793        H799   1.083       .  S
S794        C795   1.726       .  A
C795        C796   1.386       .  A
C796        H800   1.083       .  S
C801        S807   1.711       .  A
C801        C806   1.387       .  A
C801        C802   1.405       .  A
C802        C803   1.405       .  A
C802        H813   1.083       .  S
C803        C812   1.375       .  A
C803        C804   1.388       .  A
C804        S810   1.703       .  A
C804        C805   1.400       .  A
C805        C806   1.401       .  A
C805        H814   1.083       .  S
C806        C809   1.369       .  A
S807        C808   1.724       .  A
C808        C809   1.386       .  A
C809        H815   1.083       .  S
S810        C811   1.722       .  A
C811        C812   1.386       .  A
C812        H816   1.083       .  S
C817        S823   1.715       .  A
C817        C822   1.386       .  A
C817        C818   1.405       .  A
C818        C819   1.407       .  A
C818        H829   1.083       .  S
C819        C828   1.372       .  A
C819        C820   1.388       .  A
C820        S826   1.703       .  A
C820        C821   1.395       .  A
C821        C822   1.397       .  A
C821        H830   1.083       .  S
C822        C825   1.362       .  A
S823        C824   1.727       .  A
C824        C825   1.384       .  A
C825        H831   1.083       .  S
S826        C827   1.717       .  A
C827        C828   1.388       .  A
C828        H832   1.083       .  S
C833        S839   1.709       .  A
C833        C838   1.387       .  A
C833        C834   1.406       .  A
C834        C835   1.405       .  A
C834        H845   1.083       .  S
C835        C844   1.377       .  A
C835        C836   1.387       .  A
C836        S842   1.699       .  A
C836        C837   1.400       .  A
C837        C838   1.399       .  A
C837        H846   1.083       .  S
C838        C841   1.371       .  A
S839        C840   1.726       .  A
C840        C841   1.385       .  A
C841        H847   1.083       .  S
S842        C843   1.725       .  A
C843        C844   1.388       .  A
C844        H848   1.083       .  S
C849        S855   1.701       .  A
C849        C854   1.388       .  A
C849        C850   1.395       .  A
C850        C851   1.397       .  A
C850        H861   1.083       .  S
C851        C860   1.359       .  A
C851        C852   1.387       .  A
C852        S858   1.711       .  A
C852        C853   1.400       .  A
C853        C854   1.403       .  A
C853        H862   1.083       .  S
C854        C857   1.367       .  A
S855        C856   1.721       .  A
C856        C857   1.385       .  A
C857        H863   1.083       .  S
S858        C859   1.720       .  A
C859        C860   1.384       .  A
C860        H864   1.084       .  S
C865        S871   1.711       .  A
C865        C870   1.386       .  A
C865        C866   1.402       .  A
C866        C867   1.404       .  A
C866        H877   1.083       .  S
C867        C876   1.369       .  A
C867        C868   1.388       .  A
C868        S874   1.705       .  A
C868        C869   1.397       .  A
C869        C870   1.399       .  A
C869        H878   1.083       .  S
C870        C873   1.363       .  A
S871        C872   1.724       .  A
C872        C873   1.386       .  A
C873        H879   1.083       .  S
S874        C875   1.716       .  A
C875        C876   1.384       .  A
C876        H880   1.083       .  S
C881        S887   1.719       .  A
C881        C886   1.385       .  A
C881        C882   1.409       .  A
C882        C883   1.410       .  A
C882        H893   1.083       .  S
C883        C892   1.378       .  A
C883        C884   1.387       .  A
C884        S890   1.699       .  A
C884        C885   1.395       .  A
C885        C886   1.397       .  A
C885        H894   1.083       .  S
C886        C889   1.363       .  A
S887        C888   1.728       .  A
C888        C889   1.385       .  A
C889        H895   1.083       .  S
S890        C891   1.721       .  A
C891        C892   1.392       .  A
C892        H896   1.083       .  S
C897        S903   1.710       .  A
C897        C902   1.387       .  A
C897        C898   1.399       .  A
C898        C899   1.402   1_655  A
C898        H909   1.083       .  S
C899        C908   1.366       .  A
C899        C900   1.387       .  A
C900        S906   1.709       .  A
C900        C901   1.400       .  A
C901        C902   1.402   1_455  A
C901        H910   1.083       .  S
C902        C905   1.366       .  A
S903        C904   1.721       .  A
C904        C905   1.386       .  A
C905        H911   1.083       .  S
S906        C907   1.719       .  A
C907        C908   1.384       .  A
C908        H912   1.084       .  S
C913        S919   1.709   1_554  A
C913        C918   1.387       .  A
C913        C914   1.400   1_554  A
C914        C915   1.403   1_556  A
C914        H925   1.083       .  S
C915        C924   1.367       .  A
C915        C916   1.387       .  A
C916        S922   1.710       .  A
C916        C917   1.401       .  A
C917        C918   1.403       .  A
C917        H926   1.083       .  S
C918        C921   1.368       .  A
S919        C920   1.722       .  A
C920        C921   1.387   1_556  A
C921        H927   1.083       .  S
S922        C923   1.722       .  A
C923        C924   1.388       .  A
C924        H928   1.083       .  S
C929        S935   1.711       .  A
C929        C934   1.386       .  A
C929        C930   1.403       .  A
C930        C931   1.405       .  A
C930        H941   1.083       .  S
C931        C940   1.373       .  A
C931        C932   1.386       .  A
C932        S938   1.712       .  A
C932        C933   1.404       .  A
C933        C934   1.405       .  A
C933        H942   1.083       .  S
C934        C937   1.373       .  A
S935        C936   1.723       .  A
C936        C937   1.389       .  A
C937        H943   1.083       .  S
S938        C939   1.725       .  A
C939        C940   1.389       .  A
C940        H944   1.083       .  S
C945        S951   1.705       .  A
C945        C950   1.387       .  A
C945        C946   1.399       .  A
C946        C947   1.400       .  A
C946        H957   1.083       .  S
C947        C956   1.368       .  A
C947        C948   1.387       .  A
C948        S954   1.713       .  A
C948        C949   1.405       .  A
C949        C950   1.406       .  A
C949        H958   1.083       .  S
C950        C953   1.374       .  A
S951        C952   1.721       .  A
C952        C953   1.389       .  A
C953        H959   1.083       .  S
S954        C955   1.725       .  A
C955        C956   1.385       .  A
C956        H960   1.083       .  S
C961        S967   1.700       .  A
C961        C966   1.387       .  A
C961        C962   1.397       .  A
C962        C963   1.398       .  A
C962        H973   1.083       .  S
C963        C972   1.366       .  A
C963        C964   1.387       .  A
C964        S970   1.709       .  A
C964        C965   1.404       .  A
C965        C966   1.405       .  A
C965        H974   1.083       .  S
C966        C969   1.373   1_556  A
S967        C968   1.722   1_556  A
C968        C969   1.389       .  A
C969        H975   1.083       .  S
S970        C971   1.725       .  A
C971        C972   1.384       .  A
C972        H976   1.083       .  S
C977        S983   1.710       .  A
C977        C982   1.387       .  A
C977        C978   1.400       .  A
C978        C979   1.403       .  A
C978        H989   1.083       .  S
C979        C988   1.367       .  A
C979        C980   1.387       .  A
C980        S986   1.712       .  A
C980        C981   1.402       .  A
C981        C982   1.404       .  A
C981        H990   1.083       .  S
C982        C985   1.369       .  A
S983        C984   1.722       .  A
C984        C985   1.388       .  A
C985        H991   1.083       .  S
S986        C987   1.720       .  A
C987        C988   1.384       .  A
C988        H992   1.084       .  S
C993        S999   1.714       .  A
C993        C998   1.387       .  A
C993        C994   1.408       .  A
C994        C995   1.408       .  A
C994       H1005   1.083       .  S
C995       C1004   1.380       .  A
C995        C996   1.388       .  A
C996       S1002   1.694       .  A
C996        C997   1.395       .  A
C997        C998   1.394       .  A
C997       H1006   1.083       .  S
C998       C1001   1.364       .  A
S999       C1000   1.723       .  A
C1000      C1001   1.379       .  A
C1001      H1007   1.084       .  S
S1002      C1003   1.723       .  A
C1003      C1004   1.391       .  A
C1004      H1008   1.083       .  S
C1009      S1015   1.710   1_554  A
C1009      C1014   1.387       .  A
C1009      C1010   1.399       .  A
C1010      C1011   1.402       .  A
C1010      H1021   1.083       .  S
C1011      C1020   1.365   1_545  A
C1011      C1012   1.387       .  A
C1012      S1018   1.707       .  A
C1012      C1013   1.397       .  A
C1013      C1014   1.400       .  A
C1013      H1022   1.083       .  S
C1014      C1017   1.362       .  A
S1015      C1016   1.721       .  A
C1016      C1017   1.385   1_556  A
C1017      H1023   1.083       .  S
S1018      C1019   1.721       .  A
C1019      C1020   1.387   1_545  A
C1020      H1024   1.083       .  S
C1025      S1031   1.706       .  A
C1025      C1030   1.387   1_655  A
C1025      C1026   1.403   1_655  A
C1026      C1027   1.403       .  A
C1026      H1037   1.083       .  S
C1027      C1036   1.373       .  A
C1027      C1028   1.387       .  A
C1028      S1034   1.699       .  A
C1028      C1029   1.398       .  A
C1029      C1030   1.398       .  A
C1029      H1038   1.083       .  S
C1030      C1033   1.367   1_456  A
S1031      C1032   1.724   1_556  A
C1032      C1033   1.385       .  A
C1033      H1039   1.083   1_655  S
S1034      C1035   1.723       .  A
C1035      C1036   1.387       .  A
C1036      H1040   1.083       .  S
C1041      S1047   1.710   1_455  A
C1041      C1046   1.387       .  A
C1041      C1042   1.403       .  A
C1042      C1043   1.404       .  A
C1042      H1053   1.083       .  S
C1043      C1052   1.371       .  A
C1043      C1044   1.388       .  A
C1044      S1050   1.704       .  A
C1044      C1045   1.398       .  A
C1045      C1046   1.400       .  A
C1045      H1054   1.083       .  S
C1046      C1049   1.367   1_455  A
S1047      C1048   1.723       .  A
C1048      C1049   1.385       .  A
C1049      H1055   1.083       .  S
S1050      C1051   1.719       .  A
C1051      C1052   1.385       .  A
C1052      H1056   1.083       .  S
C1057      S1063   1.709       .  A
C1057      C1062   1.386       .  A
C1057      C1058   1.402       .  A
C1058      C1059   1.403       .  A
C1058      H1069   1.083       .  S
C1059      C1068   1.371       .  A
C1059      C1060   1.387       .  A
C1060      S1066   1.708       .  A
C1060      C1061   1.401       .  A
C1061      C1062   1.402       .  A
C1061      H1070   1.083       .  S
C1062      C1065   1.369       .  A
S1063      C1064   1.723       .  A
C1064      C1065   1.388       .  A
C1065      H1071   1.083       .  S
S1066      C1067   1.724       .  A
C1067      C1068   1.387       .  A
C1068      H1072   1.083       .  S
