geometry optimzed in LAMMPS
_audit_creation_date              2020-11-30 
_audit_creation_method            'lammps2cif' 
_symmetry_space_group_name_H-M    'P1' 
_symmetry_Int_Tables_number       1 
_symmetry_cell_setting            triclinic 
loop_ 
_symmetry_equiv_pos_as_xyz 
  x,y,z 
_cell_length_a                    41.44900009360564 
_cell_length_b                    41.37537391659145 
_cell_length_c                    41.30080666114906 
_cell_angle_alpha                 91.44766184715742 
_cell_angle_beta                  90.80028263985398 
_cell_angle_gamma                 89.31409747035394 
loop_ 
_atom_site_label 
_atom_site_type_symbol 
_atom_site_fract_x 
_atom_site_fract_y 
_atom_site_fract_z 
_atom_site_charge 
C1          C  0.72861434  0.77531765  0.75864178     0.03190
C2          C  0.74318022  0.75133384  0.77716415    -0.12960
C3          C  0.76662248  0.73009469  0.76395751     0.00690
C4          C  0.77803925  0.73608393  0.73285678    -0.11480
C5          C  0.76657681  0.76296841  0.71570706     0.03180
C6          C  0.74106810  0.78177741  0.72817794    -0.10900
H7          H  0.73426647  0.74775368  0.80134972     0.08780
H8          H  0.79537944  0.71997524  0.72153406     0.06310
H9          H  0.73079045  0.80114489  0.71404294     0.06150
C10         C  0.27690165  0.80488201  0.24437315     0.03190
C11         C  0.29644869  0.80490902  0.27230592    -0.12960
C12         C  0.29375738  0.78030272  0.29477566     0.00690
C13         C  0.27087853  0.75609105  0.28960019    -0.11480
C14         C  0.25173071  0.75540588  0.26137622     0.03180
C15         C  0.25432138  0.78025464  0.23907942    -0.10900
H16         H  0.31480376  0.82317016  0.27577564     0.08780
H17         H  0.26887690  0.73705904  0.30695899     0.06310
H18         H  0.23970051  0.77976942  0.21711079     0.06150
C19         C  0.76975946  0.73222348  0.25810392     0.03190
C20         C  0.74968541  0.74511291  0.28238146    -0.12960
C21         C  0.75338676  0.77718237  0.29354900     0.00690
C22         C  0.77807278  0.79584859  0.28120141    -0.11480
C23         C  0.79773706  0.78369222  0.25619756     0.03180
C24         C  0.79342548  0.75173327  0.24471773    -0.10900
H25         H  0.73147538  0.73008204  0.29276575     0.08780
H26         H  0.78189111  0.82002933  0.29108518     0.06310
H27         H  0.80849132  0.74199989  0.22548968     0.06150
C28         C  0.30596803  0.27094545  0.24565300     0.03190
C29         C  0.28246944  0.29502755  0.25069201    -0.12960
C30         C  0.26124483  0.29294593  0.27646181     0.00690
C31         C  0.26294916  0.26668761  0.29678619    -0.11480
C32         C  0.28642110  0.24266978  0.29194764     0.03180
C33         C  0.30738784  0.24413377  0.26578244    -0.10900
H34         H  0.28113181  0.31565430  0.23502335     0.08780
H35         H  0.24680015  0.26557355  0.31716781     0.06310
H36         H  0.32562455  0.22546879  0.26214504     0.06150
C37         C  0.76091035  0.31996031  0.28614568     0.03190
C38         C  0.78697190  0.30465124  0.30174226    -0.12960
C39         C  0.79647281  0.27318683  0.29235431     0.00690
C40         C  0.77748323  0.25583059  0.26965184    -0.11480
C41         C  0.75216909  0.27105857  0.25275800     0.03180
C42         C  0.74440375  0.30349848  0.26098118    -0.10900
H43         H  0.80016248  0.31749712  0.32074887     0.08780
H44         H  0.78316630  0.23073135  0.26467707     0.06310
H45         H  0.72552191  0.31602847  0.24771779     0.06150
C46         C  0.77316295  0.28388324  0.82103180     0.03190
C47         C  0.78558679  0.31039672  0.80427454    -0.12960
C48         C  0.77125483  0.32024577  0.77472966     0.00690
C49         C  0.74421696  0.30313357  0.76272722    -0.11480
C50         C  0.73003378  0.27890503  0.78047488     0.03180
C51         C  0.74462154  0.26933928  0.80955824    -0.10900
H52         H  0.80521388  0.32395561  0.81511241     0.08780
H53         H  0.73276302  0.30999953  0.74011878     0.06310
H54         H  0.73337454  0.25102199  0.82374953     0.06150
C55         C  0.27014306  0.76727450  0.72921474     0.03190
C56         C  0.29388108  0.74508572  0.73873414    -0.12960
C57         C  0.30499311  0.74555572  0.77075093     0.00690
C58         C  0.28946107  0.76523966  0.79385057    -0.11480
C59         C  0.26793311  0.79040067  0.78509609     0.03180
C60         C  0.25940452  0.79115297  0.75159846    -0.10900
H61         H  0.30312507  0.72701715  0.72176410     0.08780
H62         H  0.29541536  0.75985155  0.81811760     0.06310
H63         H  0.24363053  0.80953743  0.74195269     0.06150
Zr64       Zr  0.99182812  0.06896910  0.08275193     2.17510
O65         O  0.93619324  0.05432698  0.07027802    -0.51270
O66         O  0.97890088  0.09912274  0.13341956    -0.74470
O67         O  0.97528689  0.02231360  0.11525974    -0.81260
O68         O  0.98645484  0.13743904  0.02153785    -0.83000
O69         O  0.02014947  0.99171216  0.12295973    -0.78630
O70         O  0.95528983  0.10660155  0.05308463    -0.90260
O71         O  0.02582531  0.11812027  0.15546447    -0.76220
O72         O  0.03661639  0.05794172  0.11800690    -0.85720
O73         O  0.02460962  0.11609659  0.08415083    -0.85410
O74         O  0.02005888  0.02263045  0.05899455    -0.72160
O75         O  0.01020863  0.07561430  0.02813061    -0.84300
Zr76       Zr  0.11507430  0.06811244  0.04312908     2.26420
Zr77       Zr  0.06529865  0.01274882  0.09455120     2.06270
Zr78       Zr  0.04264855  0.12290070  0.02993357     2.10050
Zr79       Zr  0.06915934  0.10488136  0.11946673     1.78760
O80         O  0.03759819  0.12989973  0.97172822    -0.93100
O81         O  0.08674641  0.08423015  0.17164112    -0.40910
O82         O  0.08694402  0.11376782  0.06591281    -0.77540
O83         O  0.09873189  0.05944127  0.09770042    -0.96230
O84         O  0.08328406  0.02075783  0.04113129    -0.89530
O85         O  0.07157843  0.07822356  0.00650669    -0.92380
C86         C  0.99532977  0.11424525  0.15570643     1.01380
C87         C  0.95890392  0.12854041  0.03162081     1.14310
C88         C  0.99013513  0.99772120  0.12746639     1.05090
O89         O  0.08629943  0.00236747  0.14872727    -0.94530
O90         O  0.11908470  0.98856304  0.08961335    -0.90270
O91         O  0.14671370  0.02074810  0.05648048    -0.83420
C92         C  0.14447862  0.99565529  0.07391225     1.11730
O93         O  0.98685600  0.01554335  0.98360080    -0.96500
Zr94       Zr  0.03986853  0.03051472  0.00512679     1.88940
O95         O  0.13099912  0.04043680  0.99352856    -0.73150
O96         O  0.05936065  0.95581375  0.07926966    -0.52410
O97         O  0.03518463  0.97183523  0.00435041    -0.97090
O98         O  0.02957190  0.04697257  0.94954691    -0.54310
O99         O  0.08807276  0.01075546  0.97627948    -0.73670
C100        C  0.11804782  0.01862621  0.97516269     0.98670
O101        O  0.16729996  0.08455149  0.06544581    -0.62490
O102        O  0.03658913  0.18066985  0.04171371    -0.57290
O103        O  0.13521440  0.11682449  0.01783872    -0.93980
O104        O  0.09168952  0.15043251  0.01591347    -0.92400
O105        O  0.06881525  0.16366501  0.12454202    -0.92760
O106        O  0.12093456  0.12702251  0.13698787    -0.91540
C107        C  0.12189855  0.14436494  0.01189185     1.17520
H108        H  0.01254752  0.13492995  0.09153529     0.33460
H109        H  0.11742900  0.05518271  0.11122793     0.44310
H110        H  0.07975374  0.08323899  0.98546461     0.37840
H111        H  0.00593353  0.00421777  0.05841465     0.34320
H112        H  0.08312850  0.10240394  0.18728108     0.26110
H113        H  0.06128196  0.94421002  0.09989887     0.32040
H114        H  0.04224879  0.96469736  0.98248353     0.37950
H115        H  0.06680735  0.16844624  0.14804826     0.32410
H116        H  0.02847135  0.18986210  0.02120425     0.31290
H117        H  0.04622397  0.15169138  0.96803569     0.32970
H118        H  0.03434168  0.02741393  0.93606101     0.31940
H119        H  0.13624733  0.10848776  0.13607916     0.35940
H120        H  0.16153325  0.10206702  0.08113704     0.28670
H121        H  0.92489287  0.05546759  0.09122934     0.32900
H122        H  0.99078677  0.99842350  0.96688666     0.35750
H123        H  0.01818933  0.18275160  0.05667927     0.28370
H124        H  0.17513556  0.06701923  0.07947130     0.41240
H125        H  0.06841979  0.00824987  0.16347022     0.31290
H126        H  0.07031571  0.06815749  0.17707367     0.38910
H127        H  0.04700021  0.06207486  0.94445422     0.30760
H128        H  0.03648570  0.95337423  0.07254278     0.30820
H129        H  0.93703777  0.03107903  0.06403726     0.31090
C130        C  0.20672813  0.29753011  0.93605857     0.03190
C131        C  0.19444536  0.32459394  0.95342560    -0.12960
C132        C  0.18059239  0.32127004  0.98433142     0.00690
C133        C  0.17834257  0.28951650  0.99616124    -0.11480
C134        C  0.18529317  0.26240448  0.97630793     0.03180
C135        C  0.20106768  0.26646541  0.94711901    -0.10900
H136        H  0.19499871  0.34782619  0.94216060     0.08780
H137        H  0.16840854  0.28518102  0.01968335     0.06310
H138        H  0.20714384  0.24550676  0.93202770     0.06150
C139        C  0.96280623  0.17629302  0.33310591     0.03190
C140        C  0.93389037  0.19401613  0.33748186    -0.12960
C141        C  0.91550589  0.20374857  0.31042205     0.00690
C142        C  0.92519856  0.19427145  0.27914034    -0.11480
C143        C  0.95424197  0.17752733  0.27427321     0.03180
C144        C  0.97370721  0.17036179  0.30123875    -0.10900
H145        H  0.92462412  0.19852986  0.36147400     0.08780
H146        H  0.90920630  0.19878748  0.25876079     0.06310
H147        H  0.99565308  0.15630272  0.29747807     0.06150
C148        C  0.32320446  0.92020447  0.10041007     0.03190
C149        C  0.32126613  0.90396728  0.12960099    -0.12960
C150        C  0.29105467  0.89697198  0.14266349     0.00690
C151        C  0.26295153  0.90826789  0.12687752    -0.11480
C152        C  0.26454262  0.92588819  0.09814265     0.03180
C153        C  0.29478844  0.92863948  0.08369953    -0.10900
H154        H  0.34323589  0.89636736  0.14185636     0.08780
H155        H  0.23978948  0.90367740  0.13740567     0.06310
H156        H  0.29676689  0.93857596  0.06004291     0.06150
Zr157      Zr  0.92711151  0.56013367  0.50056950     2.17510
O158        O  0.87060554  0.57655972  0.50621009    -0.51270
O159        O  0.90790520  0.52918431  0.54662105    -0.74470
O160        O  0.89126213  0.53209328  0.46233224    -0.81260
O161        O  0.95527395  0.64349925  0.53084344    -0.83000
O162        O  0.92042011  0.49933932  0.42869543    -0.78630
O163        O  0.91059422  0.61476895  0.51682426    -0.90260
O164        O  0.94932494  0.50185006  0.57002636    -0.76220
O165        O  0.95507968  0.50949582  0.49970879    -0.85720
O166        O  0.96762719  0.56441841  0.54200946    -0.85410
O167        O  0.94850900  0.55597788  0.44635269    -0.72160
O168        O  0.96090975  0.60400221  0.48546499    -0.84300
Zr169      Zr  0.05270010  0.55273746  0.47215497     2.26420
Zr170      Zr  0.97688459  0.50503091  0.44649586     2.06270
Zr171      Zr  0.00168431  0.60762004  0.52657147     2.10050
Zr172      Zr  0.99705722  0.51451496  0.53966477     1.78760
O173        O  0.01170637  0.66477411  0.53770862    -0.93100
O174        O  0.99422607  0.45573915  0.54046244    -0.40910
O175        O  0.03186587  0.55808198  0.52609024    -0.77540
O176        O  0.01945272  0.50784598  0.48647490    -0.96230
O177        O  0.01104929  0.54845994  0.43208508    -0.89530
O178        O  0.02413984  0.60293918  0.47365700    -0.92380
C179        C  0.91948494  0.51004757  0.56814661     1.01380
C180        C  0.92478331  0.64080245  0.52624474     1.14310
C181        C  0.89359928  0.51199014  0.43829254     1.05090
O182        O  0.97090318  0.45042637  0.46592922    -0.94530
O183        O  0.02277906  0.48349505  0.41698109    -0.90270
O184        O  0.06790615  0.51122455  0.43240417    -0.83420
C185        C  0.05289347  0.48972912  0.41522894     1.11730
O186        O  0.93513170  0.62500130  0.41138128    -0.96500
Zr187      Zr  0.98368797  0.59880637  0.43273925     1.88940
O188        O  0.07462403  0.58046516  0.42629728    -0.73150
O189        O  0.97460011  0.48192216  0.39178700    -0.52410
O190        O  0.97185467  0.58029898  0.37737447    -0.97090
O191        O  0.98718768  0.65765395  0.43425554    -0.54310
O192        O  0.03275709  0.60676303  0.40236895    -0.73670
C193        C  0.06253531  0.59800529  0.40384194     0.98670
O194        O  0.10132401  0.52519633  0.49140364    -0.62490
O195        O  0.00458022  0.60386322  0.58531474    -0.57290
O196        O  0.08962669  0.59218826  0.49716448    -0.93980
O197        O  0.05756908  0.62383580  0.52938419    -0.92400
O198        O  0.01069901  0.53238709  0.59474677    -0.92760
O199        O  0.04609600  0.48772708  0.55887489    -0.91540
C200        C  0.08500996  0.61586042  0.51743416     1.17520
H201        H  0.95815633  0.56857339  0.56296764     0.33460
H202        H  0.03209057  0.48807760  0.48555950     0.44310
H203        H  0.03815779  0.62075268  0.46937823     0.37840
H204        H  0.93197882  0.55724547  0.42981175     0.34320
H205        H  0.99330605  0.45054473  0.56370753     0.26110
H206        H  0.95872185  0.46427674  0.39232074     0.32040
H207        H  0.98145902  0.59662347  0.36340277     0.37950
H208        H  0.01029231  0.51257894  0.60766949     0.32410
H209        H  0.02610425  0.61238562  0.59141446     0.31290
H210        H  0.01425071  0.66685782  0.56153920     0.32970
H211        H  0.99147755  0.66367265  0.41170692     0.31940
H212        H  0.06297737  0.49427664  0.54374014     0.35940
H213        H  0.10279295  0.53100242  0.51477849     0.28670
H214        H  0.85868013  0.55654158  0.51047037     0.32900
H215        H  0.94176830  0.63595650  0.39154292     0.35750
H216        H  0.98914058  0.62051739  0.59342792     0.28370
H217        H  0.09584562  0.50195985  0.49082442     0.41240
H218        H  0.94747191  0.44623700  0.46407739     0.31290
H219        H  0.97240931  0.45059534  0.53190210     0.38910
H220        H  0.00742022  0.66272275  0.44621818     0.30760
H221        H  0.96452998  0.49898719  0.37852043     0.30820
H222        H  0.86315634  0.58309067  0.48440793     0.31090
C223        C  0.71434762  0.49523984  0.36204772     0.03190
C224        C  0.71463192  0.46746480  0.34153577    -0.12960
C225        C  0.74368220  0.45029267  0.33568282     0.00690
C226        C  0.77183484  0.46042753  0.35203304    -0.11480
C227        C  0.77202373  0.48844154  0.37172068     0.03180
C228        C  0.74357774  0.50665428  0.37524774    -0.10900
H229        H  0.69201200  0.45813729  0.33201361     0.08780
H230        H  0.79364756  0.44583319  0.35028442     0.06310
H231        H  0.74350675  0.52808930  0.39079669     0.06150
C232        C  0.12404359  0.61309877  0.22625062     0.03190
C233        C  0.14681633  0.63781787  0.22358135    -0.12960
C234        C  0.16188389  0.65113093  0.25129980     0.00690
C235        C  0.15413418  0.64009044  0.28190494    -0.11480
C236        C  0.13152336  0.61565710  0.28510410     0.03180
C237        C  0.11773905  0.60111726  0.25719398    -0.10900
H238        H  0.15192025  0.64766844  0.20016200     0.08780
H239        H  0.16428870  0.65190136  0.30339572     0.06310
H240        H  0.10049729  0.58201891  0.25985169     0.06150
C241        C  0.88408779  0.81598663  0.57463013     0.03190
C242        C  0.85996374  0.82068612  0.59790736    -0.12960
C243        C  0.83815544  0.79593651  0.60374828     0.00690
C244        C  0.83857452  0.76784438  0.58414461    -0.11480
C245        C  0.86467437  0.76078457  0.56409345     0.03180
C246        C  0.88622141  0.78599148  0.55795058    -0.10900
H247        H  0.85893697  0.84294136  0.61221804     0.08780
H248        H  0.82001155  0.75033561  0.58707498     0.06310
H249        H  0.90583021  0.78196498  0.54128548     0.06150
Zr250      Zr  0.03358964  0.92757960  0.47923908     2.17510
O251        O  0.03771076  0.87428487  0.45294760    -0.51270
O252        O  0.98979354  0.90539353  0.51033644    -0.74470
O253        O  0.06982566  0.89159432  0.50916269    -0.81260
O254        O  0.97203631  0.95632724  0.42199117    -0.83000
O255        O  0.10263139  0.92132846  0.54250865    -0.78630
O256        O  0.00781180  0.91578618  0.42579446    -0.90260
O257        O  0.96900859  0.94463149  0.54359970    -0.76220
O258        O  0.03826762  0.95427593  0.53112729    -0.85720
O259        O  0.99163877  0.96745391  0.48252997    -0.85410
O260        O  0.08718620  0.95012486  0.48187691    -0.72160
O261        O  0.04435487  0.96314677  0.43589637    -0.84300
Zr262      Zr  0.05777555  0.05441399  0.49095812     2.26420
Zr263      Zr  0.09042555  0.97844804  0.53340424     2.06270
Zr264      Zr  0.00240430  0.00277762  0.43928396     2.10050
Zr265      Zr  0.99689769  0.99458306  0.53344760     1.78760
O266        O  0.01515738  0.99398217  0.38230236    -0.93100
O267        O  0.00204055  0.98650551  0.59153397    -0.40910
O268        O  0.00500316  0.03120965  0.49021261    -0.77540
O269        O  0.04882120  0.01930263  0.53582757    -0.96230
O270        O  0.09937089  0.01408843  0.49024719    -0.89530
O271        O  0.05456913  0.02626685  0.44018610    -0.92380
C272        C  0.97007416  0.91552606  0.53222290     1.01380
C273        C  0.98420899  0.92990424  0.41099888     1.14310
C274        C  0.09235837  0.89418161  0.53072770     1.05090
O275        O  0.08340032  0.97468820  0.59161265    -0.94530
O276        O  0.11750419  0.02672100  0.55544230    -0.90270
O277        O  0.09514954  0.07182820  0.53364923    -0.83420
C278        C  0.11518814  0.05762550  0.55283882     1.11730
O279        O  0.10141770  0.94420665  0.39781779    -0.96500
Zr280      Zr  0.09671991  0.98700190  0.43933444     1.88940
O281        O  0.10626289  0.07595106  0.46831721    -0.73150
O282        O  0.14870122  0.97008402  0.53622836    -0.52410
O283        O  0.14885348  0.96083622  0.44907183    -0.97090
O284        O  0.10317241  0.00712669  0.38474220    -0.54310
O285        O  0.13230454  0.03352502  0.44390362    -0.73670
C286        C  0.13099595  0.06291899  0.45473134     0.98670
O287        O  0.03544327  0.10288423  0.51728568    -0.62490
O288        O  0.94682406  0.02020354  0.42958374    -0.57290
O289        O  0.03300822  0.08950183  0.44920872    -0.93980
O290        O  0.99516378  0.05815623  0.42406704    -0.92400
O291        O  0.94075725  0.00875807  0.52201838    -0.92760
O292        O  0.98009000  0.04101777  0.56678804    -0.91540
C293        C  0.01048576  0.08469942  0.42767066     1.17520
H294        H  0.97041794  0.95818038  0.48042399     0.33460
H295        H  0.05063081  0.03147887  0.55602758     0.44310
H296        H  0.05740243  0.04043350  0.42230727     0.37840
H297        H  0.10332828  0.93316329  0.48041812     0.34320
H298        H  0.97969613  0.98321492  0.59886316     0.26110
H299        H  0.15281769  0.95947913  0.55713599     0.32040
H300        H  0.16113949  0.96369632  0.42899375     0.37950
H301        H  0.92971473  0.00709525  0.54299376     0.32410
H302        H  0.94118256  0.01166244  0.40765318     0.31290
H303        H  0.99460366  0.98782020  0.37150318     0.32970
H304        H  0.12655676  0.00484943  0.38049630     0.31940
H305        H  0.98504754  0.05997813  0.55365933     0.35940
H306        H  0.01235778  0.10307550  0.51078273     0.28670
H307        H  0.02484622  0.85981284  0.46626389     0.32900
H308        H  0.12353622  0.94537246  0.38923783     0.35750
H309        H  0.93388914  0.00730437  0.44442310     0.28370
H310        H  0.03531463  0.09793346  0.54061470     0.41240
H311        H  0.07462009  0.95283712  0.59462493     0.31290
H312        H  0.01256452  0.96502145  0.59345660     0.38910
H313        H  0.09946831  0.03077674  0.38647756     0.30760
H314        H  0.15342676  0.95316499  0.51952740     0.30820
H315        H  0.06035550  0.86673385  0.45525460     0.31090
C316        C  0.16263825  0.71790259  0.57146812     0.03190
C317        C  0.18520405  0.71946119  0.59737875    -0.12960
C318        C  0.19227880  0.74926612  0.61291491     0.00690
C319        C  0.17853726  0.77780943  0.60113006    -0.11480
C320        C  0.15831990  0.77726047  0.57367410     0.03180
C321        C  0.15017846  0.74713143  0.55928616    -0.10900
H322        H  0.19670475  0.69769755  0.60599639     0.08780
H323        H  0.18264539  0.80031507  0.61433245     0.06310
H324        H  0.13305438  0.74638773  0.53921694     0.06150
C325        C  0.30339470  0.14161602  0.45000761     0.03190
C326        C  0.30639791  0.15429850  0.41928911    -0.12960
C327        C  0.27901125  0.16188755  0.40073098     0.00690
C328        C  0.24831341  0.15489937  0.41229651    -0.11480
C329        C  0.24499675  0.14039086  0.44241481     0.03180
C330        C  0.27262332  0.13560290  0.46190660    -0.10900
H331        H  0.33013850  0.15738309  0.40921002     0.08780
H332        H  0.22715133  0.16010695  0.39770829     0.06310
H333        H  0.27051294  0.12379835  0.48491777     0.06150
C334        C  0.93741983  0.91165694  0.22276911     0.03190
C335        C  0.91410084  0.88763106  0.21715089    -0.12960
C336        C  0.90367103  0.86880839  0.24283038     0.00690
C337        C  0.91585382  0.87480778  0.27419851    -0.11480
C338        C  0.93858368  0.89895091  0.28018557     0.03180
C339        C  0.94939991  0.91725595  0.25442739    -0.10900
H340        H  0.90426423  0.88350309  0.19297663     0.08780
H341        H  0.90678545  0.86133223  0.29426708     0.06310
H342        H  0.96685608  0.93616442  0.25909148     0.06150
Zr343      Zr  0.57275007  0.49867388  0.93196013     2.17510
O344        O  0.58545623  0.50585056  0.87503777    -0.51270
O345        O  0.54013362  0.54603487  0.91825477    -0.74470
O346        O  0.53939018  0.46614567  0.89536272    -0.81260
O347        O  0.65466902  0.52946413  0.95866591    -0.83000
O348        O  0.50776630  0.43223240  0.92301339    -0.78630
O349        O  0.62546383  0.51547233  0.91358986    -0.90260
O350        O  0.50986184  0.56220989  0.96125141    -0.76220
O351        O  0.52459218  0.49575905  0.96241158    -0.85720
O352        O  0.57864450  0.53696617  0.97578749    -0.85410
O353        O  0.57033679  0.44310919  0.94780613    -0.72160
O354        O  0.61937076  0.48136290  0.96198287    -0.84300
Zr355      Zr  0.57475982  0.46090999  0.05415840     2.26420
Zr356      Zr  0.52249126  0.44107196  0.97977611     2.06270
Zr357      Zr  0.62445602  0.51870010  0.00654124     2.10050
Zr358      Zr  0.53102166  0.53290959  0.00698240     1.78760
O359        O  0.68262656  0.51986010  0.01564260    -0.93100
O360        O  0.47263813  0.53187125  0.01277061    -0.40910
O361        O  0.57710038  0.51620434  0.03833118    -0.77540
O362        O  0.52736311  0.47843784  0.02486429    -0.96230
O363        O  0.56895727  0.42393571  0.00954315    -0.89530
O364        O  0.62275743  0.46403657  0.02352906    -0.92380
C365        C  0.51797362  0.56353516  0.93155307     1.01380
C366        C  0.65097732  0.52620723  0.92790135     1.14310
C367        C  0.51777785  0.44434001  0.89672671     1.05090
O368        O  0.46483302  0.45276580  0.97657691    -0.94530
O369        O  0.50075566  0.41464584  0.02635406    -0.90270
O370        O  0.53213521  0.42599484  0.07060715    -0.83420
C371        C  0.50802918  0.41224594  0.05650078     1.11730
O372        O  0.63991588  0.41390444  0.92612653    -0.96500
Zr373      Zr  0.61659494  0.42703430  0.97882550     1.88940
O374        O  0.60125706  0.41000232  0.06758003    -0.73150
O375        O  0.51653410  0.38296717  0.97185849    -0.52410
O376        O  0.60029424  0.37320827  0.96019829    -0.97090
O377        O  0.67544124  0.42608433  0.98047373    -0.54310
O378        O  0.62766552  0.39127240  0.02279438    -0.73670
C379        C  0.61881475  0.38911787  0.05219323     0.98670
O380        O  0.55284611  0.47696702  0.10683942    -0.62490
O381        O  0.62386626  0.57740674  0.01304835    -0.57290
O382        O  0.61487215  0.48356522  0.09159672    -0.93980
O383        O  0.64042330  0.52187127  0.06320071    -0.92400
O384        O  0.54730632  0.58844557  0.01841152    -0.92760
O385        O  0.51194065  0.55277861  0.05938728    -0.91540
C386        C  0.63481002  0.50686852  0.08929341     1.17520
H387        H  0.58158198  0.55853328  0.96798538     0.33460
H388        H  0.50865087  0.47723491  0.03844194     0.44310
H389        H  0.64152167  0.45861321  0.03651000     0.37840
H390        H  0.56950438  0.42823165  0.92945693     0.34320
H391        H  0.46527347  0.55429497  0.00878102     0.26110
H392        H  0.49421148  0.38016498  0.96352236     0.32040
H393        H  0.61852862  0.35874795  0.96612640     0.37950
H394        H  0.52785017  0.60169903  0.01362845     0.32410
H395        H  0.64082460  0.58211868  0.02954752     0.31290
H396        H  0.68801306  0.54310320  0.01723992     0.32970
H397        H  0.68144561  0.40294831  0.98212537     0.31940
H398        H  0.51621527  0.53471374  0.07417770     0.35940
H399        H  0.55869716  0.49996261  0.11005723     0.28670
H400        H  0.56508597  0.51303392  0.86449924     0.32900
H401        H  0.65175248  0.39317210  0.92864384     0.35750
H402        H  0.63284319  0.58526229  0.99263354     0.28370
H403        H  0.52913640  0.47779128  0.10361357     0.41240
H404        H  0.46212757  0.46688477  0.95770166     0.31290
H405        H  0.46481399  0.51923351  0.99363741     0.38910
H406        H  0.68162491  0.43585590  0.00173939     0.30760
H407        H  0.53060606  0.37709742  0.95341740     0.30820
H408        H  0.58968533  0.48388155  0.86585677     0.31090
C409        C  0.45794658  0.41191499  0.71403241     0.03190
C410        C  0.47531209  0.41767464  0.74286918    -0.12960
C411        C  0.46351303  0.40741886  0.77235059     0.00690
C412        C  0.43575205  0.38861484  0.77265601    -0.11480
C413        C  0.41867715  0.38145694  0.74395468     0.03180
C414        C  0.42970869  0.39321821  0.71437944    -0.10900
H415        H  0.49744258  0.43129823  0.74242625     0.08780
H416        H  0.42672266  0.38038936  0.79551899     0.06310
H417        H  0.41602979  0.38877918  0.69221029     0.06150
C418        C  0.65412414  0.20446683  0.09441118     0.03190
C419        C  0.66957632  0.20330851  0.12498736    -0.12960
C420        C  0.67673971  0.23218892  0.14215744     0.00690
C421        C  0.66802787  0.26186971  0.12897180    -0.11480
C422        C  0.65233593  0.26335458  0.09891825     0.03180
C423        C  0.64634023  0.23462380  0.08125416    -0.10900
H424        H  0.67515896  0.18021809  0.13565529     0.08780
H425        H  0.67323792  0.28407267  0.14247364     0.06310
H426        H  0.63485530  0.23554776  0.05762170     0.06150
C427        C  0.82085698  0.58370518  0.88092717     0.03190
C428        C  0.81799691  0.61215273  0.86271097    -0.12960
C429        C  0.78950719  0.61847609  0.84441401     0.00690
C430        C  0.76411657  0.59634204  0.84554933    -0.11480
C431        C  0.76509135  0.57128826  0.86741891     0.03180
C432        C  0.79411412  0.56322320  0.88244817    -0.10900
H433        H  0.83691444  0.62987120  0.86393517     0.08780
H434        H  0.74262836  0.59950566  0.83089986     0.06310
H435        H  0.79470028  0.54269932  0.89828075     0.06150
Zr436      Zr  0.93224774  0.47881114  0.02995684     2.17510
O437        O  0.87759242  0.45766488  0.03254613    -0.51270
O438        O  0.91035685  0.50570566  0.98259136    -0.74470
O439        O  0.89701901  0.51215028  0.06511405    -0.81260
O440        O  0.96503989  0.39622475  0.00125718    -0.83000
O441        O  0.92571316  0.55288969  0.08924593    -0.78630
O442        O  0.91903621  0.42222428  0.01561012    -0.90260
O443        O  0.94770921  0.54024665  0.96453615    -0.76220
O444        O  0.95834877  0.52993372  0.02870994    -0.85720
O445        O  0.97220249  0.47452006  0.98866863    -0.85410
O446        O  0.95370730  0.48867484  0.08372840    -0.72160
O447        O  0.96866386  0.43654914  0.04586110    -0.84300
Zr448      Zr  0.05811994  0.49104426  0.05943936     2.26420
Zr449      Zr  0.98187303  0.53899161  0.08123736     2.06270
Zr450      Zr  0.00957956  0.43363314  0.00557644     2.10050
Zr451      Zr  0.99925487  0.52505509  0.98903443     1.78760
O452        O  0.02716282  0.38032443  0.98615646    -0.93100
O453        O  0.99961210  0.58391114  0.98871668    -0.40910
O454        O  0.03724261  0.48363013  0.00499211    -0.77540
O455        O  0.02346985  0.53471960  0.04171017    -0.96230
O456        O  0.01655197  0.49633504  0.09839664    -0.89530
O457        O  0.03022785  0.44108506  0.05950973    -0.92380
C458        C  0.91894582  0.52909871  0.96493150     1.01380
C459        C  0.93463946  0.39649523  0.00635780     1.14310
C460        C  0.89944247  0.53785432  0.08317518     1.05090
O461        O  0.98093969  0.59535533  0.06564031    -0.94530
O462        O  0.02709309  0.56141022  0.11164434    -0.90270
O463        O  0.07301152  0.53444487  0.09758196    -0.83420
C464        C  0.05757046  0.55599782  0.11434439     1.11730
O465        O  0.94082691  0.41786620  0.11384789    -0.96500
Zr466      Zr  0.98943333  0.44634791  0.09903116     1.88940
O467        O  0.07982199  0.46619468  0.10810768    -0.73150
O468        O  0.97082433  0.55148230  0.13808368    -0.52410
O469        O  0.97337154  0.46618845  0.15256873    -0.97090
O470        O  0.99862607  0.38862843  0.10652299    -0.54310
O471        O  0.03731206  0.44298376  0.13180942    -0.73670
C472        C  0.06704521  0.45078381  0.13116683     0.98670
O473        O  0.10568771  0.51710631  0.03866034    -0.62490
O474        O  0.01349877  0.44221854  0.94761450    -0.57290
O475        O  0.09619931  0.44928584  0.04003024    -0.93980
O476        O  0.06481520  0.41375936  0.01143520    -0.92400
O477        O  0.00363598  0.50844150  0.93224860    -0.92760
O478        O  0.04681657  0.54562700  0.96281981    -0.91540
C479        C  0.09185572  0.42248517  0.02415920     1.17520
H480        H  0.96235046  0.46931455  0.96787889     0.33460
H481        H  0.03551890  0.55456440  0.04163786     0.44310
H482        H  0.04421748  0.42355619  0.06592538     0.37840
H483        H  0.93731947  0.48958238  0.10010626     0.34320
H484        H  0.99695118  0.58932886  0.96560541     0.26110
H485        H  0.96094037  0.57339621  0.13849255     0.32040
H486        H  0.98278340  0.45043300  0.16779941     0.37950
H487        H  0.99479167  0.52691546  0.92003853     0.32410
H488        H  0.03631494  0.43736778  0.94238058     0.31290
H489        H  0.03371904  0.38268812  0.96339766     0.32970
H490        H  0.00234379  0.38647696  0.13011172     0.31940
H491        H  0.06361695  0.54621302  0.98009607     0.35940
H492        H  0.10720601  0.50909868  0.01593015     0.28670
H493        H  0.86263688  0.47632619  0.03065334     0.32900
H494        H  0.94453810  0.41092083  0.13637648     0.35750
H495        H  0.00111777  0.42439619  0.93715459     0.28370
H496        H  0.09929925  0.54012969  0.03684398     0.41240
H497        H  0.95869110  0.59925594  0.05748991     0.31290
H498        H  0.97889388  0.59063650  0.99859120     0.38910
H499        H  0.01986091  0.38363731  0.09683284     0.30760
H500        H  0.95323003  0.53685456  0.14398923     0.30820
H501        H  0.87529076  0.45074603  0.05518147     0.31090
C502        C  0.73190704  0.55925659  0.17038300     0.03190
C503        C  0.73111477  0.58550589  0.19284852    -0.12960
C504        C  0.75761356  0.60638890  0.19629967     0.00690
C505        C  0.78607760  0.59893903  0.17942504    -0.11480
C506        C  0.78773318  0.57192450  0.15847893     0.03180
C507        C  0.76041980  0.55294778  0.15321448    -0.10900
H508        H  0.70955122  0.59021049  0.20668700     0.08780
H509        H  0.80680108  0.61457879  0.18204286     0.06310
H510        H  0.76120072  0.53385824  0.13481448     0.06150
C511        C  0.12339831  0.42527806  0.31231230     0.03190
C512        C  0.15095403  0.40511728  0.31415304    -0.12960
C513        C  0.16368683  0.39082811  0.28583030     0.00690
C514        C  0.15250829  0.40053905  0.25566336    -0.11480
C515        C  0.12517383  0.41992552  0.25340371     0.03180
C516        C  0.11013642  0.43158106  0.28140861    -0.10900
H517        H  0.16228419  0.39996059  0.33707820     0.08780
H518        H  0.16391049  0.39132894  0.23377230     0.06310
H519        H  0.08796862  0.44549788  0.27887085     0.06150
C520        C  0.86290081  0.21862185  0.98431262     0.03190
C521        C  0.84305886  0.21929270  0.95603109    -0.12960
C522        C  0.83195318  0.24917493  0.94370480     0.00690
C523        C  0.84226600  0.27801809  0.95878248    -0.11480
C524        C  0.86235750  0.27781219  0.98620484     0.03180
C525        C  0.87194649  0.24810950  0.99915771    -0.10900
H526        H  0.83732108  0.19693917  0.94313004     0.08780
H527        H  0.83659818  0.30079523  0.94749176     0.06310
H528        H  0.88920527  0.24801385  0.01913130     0.06150
Zr529      Zr  0.51322391  0.10995730  0.97567014     2.17510
O530        O  0.51575466  0.16808225  0.96736546    -0.51270
O531        O  0.56332104  0.12202743  0.00462680    -0.74470
O532        O  0.48556674  0.14145273  0.01731128    -0.81260
O533        O  0.53353436  0.09204709  0.88660995    -0.83000
O534        O  0.45872661  0.10933682  0.05127554    -0.78630
O535        O  0.52703119  0.13308106  0.92369094    -0.90260
O536        O  0.57989380  0.07693258  0.03062713    -0.76220
O537        O  0.51478920  0.07476857  0.02054765    -0.85720
O538        O  0.54997872  0.06755775  0.96114857    -0.85410
O539        O  0.45841050  0.09308892  0.98297486    -0.72160
O540        O  0.49017211  0.08527608  0.92789376    -0.84300
Zr541      Zr  0.47294155  0.98807493  0.96437803     2.26420
Zr542      Zr  0.46086399  0.05583909  0.02671404     2.06270
Zr543      Zr  0.52597180  0.04189167  0.91427812     2.10050
Zr544      Zr  0.55048268  0.03186245  0.00555127     1.78760
O545        O  0.51975531  0.03571207  0.85574425    -0.93100
O546        O  0.55625087  0.01804399  0.06233360    -0.40910
O547        O  0.52757786  0.00567528  0.95825605    -0.77540
O548        O  0.49663532  0.01208501  0.01278390    -0.96230
O549        O  0.43800295  0.03165853  0.97910172    -0.89530
O550        O  0.47178099  0.02393908  0.92004015    -0.92380
C551        C  0.58124314  0.10729793  0.02520567     1.01380
C552        C  0.53271136  0.12209607  0.89488685     1.14310
C553        C  0.46829161  0.13693046  0.04229882     1.05090
O554        O  0.47739101  0.04696886  0.08260290    -0.94530
O555        O  0.43157117  0.00861290  0.04340916    -0.90270
O556        O  0.43955772  0.96753504  0.00715932    -0.83420
C557        C  0.42687656  0.97944370  0.03303859     1.11730
O558        O  0.42603041  0.12211194  0.91615746    -0.96500
Zr559      Zr  0.43653779  0.06760977  0.93530040     1.88940
O560        O  0.41961295  0.97796105  0.93954108    -0.73150
O561        O  0.40523881  0.06981124  0.04011646    -0.52410
O562        O  0.38852633  0.09036622  0.96106864    -0.97090
O563        O  0.42363760  0.06576987  0.87740348    -0.54310
O564        O  0.39649802  0.02660785  0.92841692    -0.73670
C565        C  0.39548310  0.99591515  0.93085853     0.98670
O566        O  0.48938244  0.93386963  0.98066035    -0.62490
O567        O  0.58422113  0.03735475  0.90774337    -0.57290
O568        O  0.49545161  0.95418637  0.92073870    -0.93980
O569        O  0.52932259  0.98675119  0.89449542    -0.92400
O570        O  0.60408127  0.02491484  0.98278442    -0.92760
O571        O  0.57328599  0.97827539  0.01453904    -0.91540
C572        C  0.51695283  0.95908265  0.89935057     1.17520
H573        H  0.57111099  0.07592174  0.95684809     0.33460
H574        H  0.49704198  0.99654634  0.02986236     0.44310
H575        H  0.46433916  0.01284032  0.90054090     0.37840
H576        H  0.44422350  0.11114142  0.98797148     0.34320
H577        H  0.57933584  0.02154843  0.06765330     0.26110
H578        H  0.40554311  0.07428041  0.06378359     0.32040
H579        H  0.37434346  0.09767643  0.94316758     0.37950
H580        H  0.61910480  0.02962376  0.00110366     0.32410
H581        H  0.58740901  0.01837404  0.89301206     0.31290
H582        H  0.54207903  0.03449894  0.84752533     0.32970
H583        H  0.39981912  0.06770401  0.87612797     0.31940
H584        H  0.55475089  0.96352544  0.01185818     0.35940
H585        H  0.51205222  0.93121935  0.97372235     0.28670
H586        H  0.52513178  0.17757767  0.98758572     0.32900
H587        H  0.40603685  0.12110151  0.90280329     0.35750
H588        H  0.58992707  0.05610077  0.89462632     0.28370
H589        H  0.49123374  0.93516331  0.00458395     0.41240
H590        H  0.49363970  0.06379526  0.08748124     0.31290
H591        H  0.54479395  0.03562719  0.07427724     0.38910
H592        H  0.42823773  0.04330447  0.86992369     0.30760
H593        H  0.40103910  0.09108859  0.03035406     0.30820
H594        H  0.49307111  0.17588354  0.96681213     0.31090
C595        C  0.56803993  0.19060562  0.72597067     0.03190
C596        C  0.59186727  0.21428411  0.72451657    -0.12960
C597        C  0.60271807  0.23011313  0.75303284     0.00690
C598        C  0.58785174  0.22382524  0.78247607    -0.11480
C599        C  0.56692924  0.19765949  0.78522918     0.03180
C600        C  0.55666269  0.18171826  0.75626979    -0.10900
H601        H  0.60326769  0.21899559  0.70169613     0.08780
H602        H  0.59514758  0.23768866  0.80349414     0.06310
H603        H  0.54097050  0.16101801  0.75706618     0.06150
C604        C  0.44038451  0.31307660  0.11855458     0.03190
C605        C  0.41397316  0.31371172  0.13926288    -0.12960
C606        C  0.39733172  0.28513025  0.14466685     0.00690
C607        C  0.40673663  0.25632498  0.12899445    -0.11480
C608        C  0.43242902  0.25591094  0.10750954     0.03180
C609        C  0.44976737  0.28410562  0.10307098    -0.10900
H610        H  0.40661635  0.33614557  0.15127303     0.08780
H611        H  0.39422576  0.23411546  0.13377598     0.06310
H612        H  0.47049016  0.28367059  0.08739605     0.06150
C613        C  0.21193863  0.94259401  0.90101706     0.03190
C614        C  0.20763126  0.91861253  0.87659576    -0.12960
C615        C  0.23433200  0.90666317  0.85929032     0.00690
C616        C  0.26428766  0.92187538  0.86357773    -0.11480
C617        C  0.27069129  0.94215493  0.89055996     0.03180
C618        C  0.24376538  0.95149340  0.90962115    -0.10900
H619        H  0.18415738  0.90895090  0.87135874     0.08780
H620        H  0.28280888  0.91535891  0.84679706     0.06310
H621        H  0.24692006  0.96647361  0.93123270     0.06150
Zr622      Zr  0.57370747  0.55187902  0.61817506     2.17510
O623        O  0.59137992  0.54724391  0.67452688    -0.51270
O624        O  0.54095273  0.50578604  0.63256770    -0.74470
O625        O  0.54110944  0.58441478  0.65545546    -0.81260
O626        O  0.65426013  0.51877569  0.58904078    -0.83000
O627        O  0.50235953  0.61093622  0.62679713    -0.78630
O628        O  0.62666772  0.53051157  0.63493124    -0.90260
O629        O  0.51223235  0.48702977  0.58884754    -0.76220
O630        O  0.52411838  0.55486427  0.58840916    -0.85720
O631        O  0.57760913  0.51407662  0.57399876    -0.85410
O632        O  0.56910242  0.60734321  0.60211530    -0.72160
O633        O  0.61853651  0.56946229  0.58731107    -0.84300
Zr634      Zr  0.56827850  0.59031887  0.49474705     2.26420
Zr635      Zr  0.51975562  0.60940606  0.57109400     2.06270
Zr636      Zr  0.62161205  0.53224358  0.54252717     2.10050
Zr637      Zr  0.52871462  0.51823115  0.54333050     1.78760
O638        O  0.67929990  0.53443809  0.53265185    -0.93100
O639        O  0.46992318  0.51903644  0.54212514    -0.40910
O640        O  0.57284086  0.53515755  0.51134585    -0.77540
O641        O  0.52288582  0.57274595  0.52536640    -0.96230
O642        O  0.56395508  0.62693635  0.53995855    -0.89530
O643        O  0.61764135  0.58669809  0.52488447    -0.92380
C644        C  0.52013733  0.48693967  0.61890272     1.01380
C645        C  0.65179041  0.51991045  0.61988805     1.14310
C646        C  0.51553775  0.60204208  0.65338520     1.05090
O647        O  0.46174001  0.60102863  0.56826566    -0.94530
O648        O  0.49715688  0.64059298  0.52725446    -0.90270
O649        O  0.52549018  0.62950182  0.48176981    -0.83420
C650        C  0.50294990  0.64473074  0.49727941     1.11730
O651        O  0.64089101  0.63624158  0.62091305    -0.96500
Zr652      Zr  0.61314001  0.62371507  0.56972709     1.88940
O653        O  0.59682697  0.63883845  0.47992019    -0.73150
O654        O  0.51594262  0.66516562  0.59128685    -0.52410
O655        O  0.59510284  0.67684431  0.58945335    -0.97090
O656        O  0.67158332  0.62706135  0.56458664    -0.54310
O657        O  0.62151760  0.65932063  0.52541485    -0.73670
C658        C  0.61341002  0.66037747  0.49545438     0.98670
O659        O  0.54204442  0.57749656  0.44274576    -0.62490
O660        O  0.62346508  0.47359494  0.53396658    -0.57290
O661        O  0.60451162  0.56219694  0.45601692    -0.93980
O662        O  0.63512628  0.52812489  0.48605283    -0.92400
O663        O  0.54615751  0.46343923  0.52873728    -0.92760
O664        O  0.50586281  0.50008636  0.49145193    -0.91540
C665        C  0.62618792  0.53974001  0.45891956     1.17520
H666        H  0.58088655  0.49260874  0.58210311     0.33460
H667        H  0.50339908  0.57442202  0.51237588     0.44310
H668        H  0.63572101  0.59180567  0.51150653     0.37840
H669        H  0.56830743  0.62203020  0.62062962     0.34320
H670        H  0.46374895  0.49597828  0.54151813     0.26110
H671        H  0.49364311  0.66769501  0.59934665     0.32040
H672        H  0.61161650  0.69202277  0.58211583     0.37950
H673        H  0.52701153  0.44993853  0.53221996     0.32410
H674        H  0.64671056  0.46804744  0.53392405     0.31290
H675        H  0.68572266  0.55619469  0.54071201     0.32970
H676        H  0.67605679  0.65050735  0.56421624     0.31940
H677        H  0.51004287  0.51796666  0.47664673     0.35940
H678        H  0.54610079  0.55409898  0.43884168     0.28670
H679        H  0.57226356  0.54011179  0.68643983     0.32900
H680        H  0.64935459  0.65837164  0.61893134     0.35750
H681        H  0.61574732  0.46378741  0.55394732     0.28370
H682        H  0.51859299  0.57882805  0.44690931     0.41240
H683        H  0.45780037  0.58360579  0.58366171     0.31290
H684        H  0.46372396  0.52695246  0.56400868     0.38910
H685        H  0.67630222  0.61913998  0.54232939     0.30760
H686        H  0.52976954  0.66629110  0.61100554     0.30820
H687        H  0.59535252  0.56962517  0.68256142     0.31090
C688        C  0.64268083  0.83905583  0.44322722     0.03190
C689        C  0.66065595  0.84128049  0.41461242    -0.12960
C690        C  0.67498986  0.81326191  0.40078274     0.00690
C691        C  0.66955869  0.78313887  0.41409986    -0.11480
C692        C  0.65329484  0.78082268  0.44317773     0.03180
C693        C  0.64138901  0.80904083  0.45845862    -0.10900
H694        H  0.66321654  0.86430402  0.40306602     0.08780
H695        H  0.67770896  0.76144342  0.40132958     0.06310
H696        H  0.62927396  0.80719639  0.48135560     0.06150
C697        C  0.45951193  0.64159326  0.83423316     0.03190
C698        C  0.43203443  0.66192834  0.83379063    -0.12960
C699        C  0.41984255  0.67321877  0.80408067     0.00690
C700        C  0.43620679  0.66526631  0.77545941    -0.11480
C701        C  0.46359497  0.64525743  0.77578555     0.03180
C702        C  0.47467444  0.63286987  0.80511882    -0.10900
H703        H  0.42014486  0.66843689  0.85622455     0.08780
H704        H  0.42693708  0.67391858  0.75252178     0.06310
H705        H  0.49442494  0.61548482  0.80528056     0.06150
C706        C  0.82330326  0.46840536  0.65918897     0.03190
C707        C  0.82134503  0.43989446  0.67744852    -0.12960
C708        C  0.79581587  0.43603649  0.69970337     0.00690
C709        C  0.77389702  0.46202316  0.70407656    -0.11480
C710        C  0.77271669  0.48740195  0.68243843     0.03180
C711        C  0.79908356  0.49211372  0.66247750    -0.10900
H712        H  0.83880063  0.42062246  0.67334308     0.08780
H713        H  0.75455078  0.46030039  0.72110529     0.06310
H714        H  0.79879469  0.51264182  0.64668513     0.06150
Zr715      Zr  0.47066230  0.07148752  0.56489945     2.17510
O716        O  0.48513479  0.12451081  0.54563893    -0.51270
O717        O  0.41890840  0.08604321  0.59014752    -0.74470
O718        O  0.43034129  0.08860757  0.52529647    -0.81260
O719        O  0.52866468  0.07327028  0.63554761    -0.83000
O720        O  0.42049818  0.04544011  0.49193464    -0.78630
O721        O  0.49619674  0.10654656  0.60647820    -0.90260
O722        O  0.39335705  0.03875319  0.59594499    -0.76220
O723        O  0.43524407  0.02859655  0.55056732    -0.85720
O724        O  0.46890087  0.03800352  0.61091923    -0.85410
O725        O  0.49379065  0.04502934  0.51744682    -0.72160
O726        O  0.52489844  0.05107344  0.57232159    -0.84300
Zr727      Zr  0.50720576  0.94758309  0.55912460     2.26420
Zr728      Zr  0.45763163  0.00185291  0.50430117     2.06270
Zr729      Zr  0.52262058  0.01744034  0.61820566     2.10050
Zr730      Zr  0.43275189  0.99554790  0.59622664     1.78760
O731        O  0.58075450  0.02043156  0.62704501    -0.93100
O732        O  0.38476993  0.96846604  0.57494390    -0.40910
O733        O  0.48569973  0.97516875  0.60561030    -0.77540
O734        O  0.45365445  0.96736700  0.54973414    -0.96230
O735        O  0.51033973  0.98031289  0.51284201    -0.89530
O736        O  0.54500884  0.98884359  0.57267301    -0.92380
C737        C  0.39342423  0.06959098  0.59582269     1.01380
C738        C  0.51736827  0.10137579  0.62895205     1.14310
C739        C  0.41422828  0.07414885  0.50252386     1.05090
O740        O  0.40821753  0.97771826  0.48306597    -0.94530
O741        O  0.45811896  0.94840195  0.47943890    -0.90270
O742        O  0.48613009  0.91567264  0.51359602    -0.83420
C743        C  0.46903857  0.92082611  0.48807202     1.11730
O744        O  0.57017771  0.07473437  0.51643083    -0.96500
Zr745      Zr  0.54699309  0.02199998  0.52632142     1.88940
O746        O  0.55671064  0.93099087  0.53352137    -0.73150
O747        O  0.47574619  0.01602055  0.45067460    -0.52410
O748        O  0.54761474  0.03061046  0.46817271    -0.97090
O749        O  0.60302476  0.02742921  0.54440545    -0.54310
O750        O  0.57331738  0.97286198  0.50378765    -0.73670
C751        C  0.57378271  0.94278219  0.51114305     0.98670
O752        O  0.48857451  0.89360949  0.57271948    -0.62490
O753        O  0.51450076  0.02286578  0.67647364    -0.57290
O754        O  0.53117190  0.92607884  0.60810454    -0.93980
O755        O  0.53113079  0.96707937  0.64587110    -0.92400
O756        O  0.42430304  0.00552766  0.65396449    -0.92760
O757        O  0.41876376  0.94521553  0.62165471    -0.91540
C758        C  0.53411348  0.93722430  0.63723213     1.17520
H759        H  0.46172880  0.05016469  0.62980821     0.33460
H760        H  0.43965480  0.94947294  0.54434195     0.44310
H761        H  0.56577351  0.97944068  0.57803273     0.37840
H762        H  0.49427440  0.06007559  0.49995560     0.34320
H763        H  0.36883230  0.96995464  0.59255146     0.26110
H764        H  0.46260139  0.00247291  0.43557028     0.32040
H765        H  0.56919189  0.02293488  0.46116837     0.37950
H766        H  0.40453485  0.99367616  0.65922937     0.32410
H767        H  0.53419601  0.03341610  0.68524195     0.31290
H768        H  0.58344723  0.03413952  0.64687154     0.32970
H769        H  0.61577433  0.02542848  0.52434176     0.31940
H770        H  0.42737778  0.92804244  0.60692073     0.35940
H771        H  0.48348998  0.89458360  0.59606750     0.28670
H772        H  0.46570538  0.13825265  0.54913937     0.32900
H773        H  0.58591609  0.07121633  0.49883699     0.35750
H774        H  0.49715916  0.03933223  0.67920558     0.28370
H775        H  0.46703911  0.89117443  0.56232720     0.41240
H776        H  0.39782866  0.96839220  0.50208253     0.31290
H777        H  0.37618553  0.98282200  0.55797938     0.38910
H778        H  0.60830263  0.00745506  0.55613346     0.30760
H779        H  0.46757790  0.03830884  0.44746457     0.30820
H780        H  0.48653013  0.12171747  0.52181629     0.31090
C781        C  0.43548951  0.74419112  0.42493420     0.03190
C782        C  0.44670171  0.77491033  0.43469246    -0.12960
C783        C  0.43197183  0.80296241  0.42309590     0.00690
C784        C  0.40738467  0.80062771  0.39983802    -0.11480
C785        C  0.39620796  0.77030831  0.38933299     0.03180
C786        C  0.40963727  0.74203922  0.40252233    -0.10900
H787        H  0.46574024  0.77704903  0.45287836     0.08780
H788        H  0.39610889  0.82245115  0.39076594     0.06310
H789        H  0.39932827  0.71882953  0.39607781     0.06150
C790        C  0.21371876  0.13572671  0.61615947     0.03190
C791        C  0.24430258  0.12641906  0.60491412    -0.12960
C792        C  0.27247604  0.13858286  0.61976947     0.00690
C793        C  0.26976169  0.16054286  0.64585141    -0.11480
C794        C  0.23940151  0.17055906  0.65702282     0.03180
C795        C  0.21124723  0.15811987  0.64222701    -0.10900
H796        H  0.24622164  0.10819066  0.58567894     0.08780
H797        H  0.29125116  0.16858374  0.65877402     0.06310
H798        H  0.18775953  0.16523839  0.65132864     0.06150
C799        C  0.60194174  0.82732693  0.78024185     0.03190
C800        C  0.59038998  0.84364291  0.80787935    -0.12960
C801        C  0.56602203  0.86704773  0.80477813     0.00690
C802        C  0.55464733  0.87504607  0.77391628    -0.11480
C803        C  0.56592157  0.85863691  0.74584858     0.03180
C804        C  0.58735167  0.83257859  0.74999620    -0.10900
H805        H  0.60196583  0.83995282  0.83120684     0.08780
H806        H  0.53851599  0.89572738  0.77194287     0.06310
H807        H  0.59536893  0.81817800  0.72961300     0.06150
C808        C  0.26557697  0.29179832  0.80987322     0.03190
C809        C  0.25389287  0.26780829  0.78811884    -0.12960
C810        C  0.26683130  0.26398629  0.75705805     0.00690
C811        C  0.29395874  0.28185373  0.74892102    -0.11480
C812        C  0.30776764  0.30391707  0.77112470     0.03180
C813        C  0.29293915  0.30946142  0.80126757    -0.10900
H814        H  0.23389078  0.25293570  0.79482153     0.08780
H815        H  0.30385000  0.27907902  0.72488894     0.06310
H816        H  0.30262342  0.32768756  0.81787995     0.06150
C817        C  0.23777149  0.22696695  0.67711825    -0.05720
C818        C  0.23828827  0.19413044  0.68439335     0.00210
C819        C  0.24312144  0.18462647  0.71678163    -0.08360
C820        C  0.25035889  0.20849532  0.74058504    -0.05740
C821        C  0.25225887  0.24127217  0.73279705     0.00200
C822        C  0.24352875  0.25092551  0.70107042    -0.08270
C823        C  0.24071126  0.28593265  0.69110517     0.62110
H824        H  0.23368428  0.23390863  0.65223012     0.12800
H825        H  0.25636871  0.20152089  0.76505958     0.12810
C826        C  0.24141886  0.14936002  0.72577184     0.62340
F827        F  0.21310624  0.29009875  0.67236872    -0.22830
F828        F  0.26720590  0.29361647  0.67295858    -0.20150
F829        F  0.23854359  0.30725348  0.71733208    -0.19830
F830        F  0.26557127  0.13170124  0.71049529    -0.19880
F831        F  0.21177930  0.13710564  0.71622570    -0.20210
F832        F  0.24494558  0.14547753  0.75883780    -0.22880
C833        C  0.57062500  0.89828911  0.66307550    -0.05720
C834        C  0.54070513  0.91395201  0.66273249     0.00210
C835        C  0.51754568  0.90692081  0.68616742    -0.08360
C836        C  0.52571560  0.88468668  0.71003226    -0.05740
C837        C  0.55719054  0.87181893  0.71326868     0.00200
C838        C  0.57993381  0.87768088  0.68822046    -0.08270
C839        C  0.61392727  0.86334778  0.68705122     0.62110
H840        H  0.58712899  0.90342521  0.64381141     0.12800
H841        H  0.50799713  0.87891066  0.72794708     0.12810
C842        C  0.48454881  0.92326551  0.68629823     0.62340
F843        F  0.63218605  0.87677994  0.66310607    -0.22830
F844        F  0.61247269  0.83056390  0.67998405    -0.20150
F845        F  0.63007216  0.86903009  0.71604442    -0.19830
F846        F  0.46935611  0.91787521  0.65674500    -0.19880
F847        F  0.48784891  0.95616193  0.69184193    -0.20210
F848        F  0.46497741  0.91161767  0.71015711    -0.22880
C849        C  0.30582629  0.08968058  0.61932491    -0.05720
C850        C  0.30388819  0.12254969  0.61300093     0.00210
C851        C  0.33095136  0.13832639  0.60054128    -0.08360
C852        C  0.35977993  0.12034307  0.59591705    -0.05740
C853        C  0.36194597  0.08696432  0.60216063     0.00200
C854        C  0.33366174  0.07116304  0.61325896    -0.08270
C855        C  0.33127180  0.03486956  0.61769704     0.62110
H856        H  0.28454969  0.07842320  0.62871087     0.12800
H857        H  0.38072936  0.13231342  0.58676034     0.12810
C858        C  0.32903196  0.17352309  0.59108565     0.62340
F859        F  0.30151262  0.02583927  0.62910798    -0.22830
F860        F  0.35424341  0.02459656  0.63981818    -0.20150
F861        F  0.33526293  0.01923391  0.58806636    -0.19830
F862        F  0.32541447  0.19320026  0.61833718    -0.19880
F863        F  0.30297920  0.17817582  0.57035401    -0.20210
F864        F  0.35657899  0.18291908  0.57543305    -0.22880
C865        C  0.43389376  0.87434901  0.48169002    -0.05720
C866        C  0.45884948  0.89240338  0.46900923     0.00210
C867        C  0.47341319  0.88267776  0.43959324    -0.08360
C868        C  0.46414247  0.85306398  0.42495238    -0.05740
C869        C  0.43975444  0.83449984  0.43825985     0.00200
C870        C  0.42336285  0.84581280  0.46622907    -0.08270
C871        C  0.39468421  0.82801594  0.47939911     0.62110
H872        H  0.42262198  0.88296782  0.50385382     0.12800
H873        H  0.47563169  0.84426891  0.40299021     0.12810
C874        C  0.49801537  0.90378734  0.42376675     0.62340
F875        F  0.38195008  0.84371115  0.50642188    -0.22830
F876        F  0.40390514  0.79718143  0.48806256    -0.20150
F877        F  0.37057912  0.82604814  0.45596319    -0.19830
F878        F  0.52298256  0.91074262  0.44518540    -0.19880
F879        F  0.48335558  0.93244615  0.41480132    -0.20210
F880        F  0.51092017  0.88889467  0.39640827    -0.22880
C881        C  0.63914364  0.89713182  0.46210937    -0.05720
C882        C  0.62390674  0.86713577  0.45691762     0.00210
C883        C  0.59146317  0.86384006  0.46684849    -0.08360
C884        C  0.57736852  0.88872137  0.48550007    -0.05740
C885        C  0.59248994  0.91855455  0.49138676     0.00200
C886        C  0.62354892  0.92340198  0.47839212    -0.08270
C887        C  0.64055319  0.95551345  0.48247483     0.62110
H888        H  0.66363050  0.89963205  0.45382878     0.12800
H889        H  0.55331978  0.88511706  0.49467297     0.12810
C890        C  0.57050890  0.83485227  0.45798545     0.62340
F891        F  0.67148366  0.95415007  0.47024716    -0.22830
F892        F  0.64272172  0.96417666  0.51497599    -0.20150
F893        F  0.62350383  0.97905970  0.46605681    -0.19830
F894        F  0.57088278  0.81347033  0.48318324    -0.19880
F895        F  0.58057947  0.81921263  0.42985899    -0.20210
F896        F  0.53890573  0.84464190  0.45265223    -0.22880
C897        C  0.52135928  0.63030596  0.70612294    -0.05720
C898        C  0.50122118  0.61372809  0.68394623     0.00210
C899        C  0.46867295  0.60810387  0.69171973    -0.08360
C900        C  0.45778318  0.61804005  0.72242845    -0.05740
C901        C  0.47793305  0.63448114  0.74473870     0.00200
C902        C  0.51001948  0.64165252  0.73625797    -0.08270
C903        C  0.53189811  0.66193955  0.75823393     0.62110
H904        H  0.54608325  0.63463970  0.69940012     0.12800
H905        H  0.43312925  0.61346252  0.72920735     0.12810
C906        C  0.44557850  0.59169932  0.66787296     0.62340
F907        F  0.55962438  0.67086378  0.74258150    -0.22830
F908        F  0.54110523  0.64452810  0.78495994    -0.20150
F909        F  0.51592467  0.68992444  0.76822063    -0.19830
F910        F  0.45874476  0.56275539  0.65676075    -0.19880
F911        F  0.43980848  0.61158120  0.64197590    -0.20210
F912        F  0.41622855  0.58524388  0.68179910    -0.22880
C913        C  0.48236957  0.66700339  0.44515116    -0.05720
C914        C  0.48257964  0.66884464  0.47930877     0.00210
C915        C  0.46470002  0.69442887  0.49489893    -0.08360
C916        C  0.44754430  0.71647912  0.47568891    -0.05740
C917        C  0.44886080  0.71550896  0.44183390     0.00200
C918        C  0.46636753  0.69022511  0.42609797    -0.08270
C919        C  0.46887634  0.68800964  0.38949542     0.62110
H920        H  0.49548179  0.64740150  0.43325730     0.12800
H921        H  0.43387202  0.73601113  0.48707139     0.12810
C922        C  0.46490714  0.70038519  0.53140978     0.62340
F923        F  0.49105566  0.66464329  0.37958615    -0.22830
F924        F  0.47852219  0.71729123  0.37765589    -0.20150
F925        F  0.43925554  0.67988188  0.37615238    -0.19830
F926        F  0.49637520  0.70359170  0.54240069    -0.19880
F927        F  0.45017924  0.67514789  0.54653534    -0.20210
F928        F  0.44848387  0.72849498  0.54035268    -0.22880
C929        C  0.61143101  0.74197694  0.45645558    -0.05720
C930        C  0.64444937  0.74878856  0.45519131     0.00210
C931        C  0.66749224  0.72552414  0.46560166    -0.08360
C932        C  0.65631403  0.69605785  0.47720477    -0.05740
C933        C  0.62325859  0.68942196  0.47852588     0.00200
C934        C  0.60033307  0.71277676  0.46836273    -0.08270
C935        C  0.56434505  0.70735357  0.47115346     0.62110
H936        H  0.59428352  0.75998119  0.44817072     0.12800
H937        H  0.67330519  0.67802918  0.48585363     0.12810
C938        C  0.70351009  0.73198492  0.46558466     0.62340
F939        F  0.54633279  0.73425342  0.46244276    -0.22830
F940        F  0.55696028  0.70046523  0.50278879    -0.20150
F941        F  0.55546957  0.68181191  0.45092510    -0.19830
F942        F  0.70977274  0.76174863  0.48017803    -0.19880
F943        F  0.71458556  0.73160217  0.43419962    -0.20210
F944        F  0.72079055  0.70877273  0.48232634    -0.22880
C945        C  0.69056899  0.52746969  0.66630908    -0.05720
C946        C  0.68061162  0.50926615  0.63866501     0.00210
C947        C  0.70011455  0.48290726  0.62759850    -0.08360
C948        C  0.72994733  0.47761391  0.64267419    -0.05740
C949        C  0.74056706  0.49640953  0.66926238     0.00200
C950        C  0.72045007  0.52119384  0.68206320    -0.08270
C951        C  0.73102374  0.54108295  0.71150163     0.62110
H952        H  0.67537204  0.54732737  0.67475117     0.12800
H953        H  0.74567410  0.45848426  0.63349814     0.12810
C954        C  0.69023126  0.46027295  0.59973978     0.62340
F955        F  0.70831938  0.56453761  0.71984886    -0.22830
F956        F  0.75974749  0.55622590  0.70518770    -0.20150
F957        F  0.73552244  0.52113787  0.73758556    -0.19830
F958        F  0.69601149  0.47475785  0.57063379    -0.19880
F959        F  0.65791330  0.45274608  0.60180603    -0.20210
F960        F  0.70758898  0.43146654  0.60018546    -0.22880
C961        C  0.52691792  0.17744578  0.68339712    -0.05720
C962        C  0.55772014  0.17153443  0.69678819     0.00210
C963        C  0.57623725  0.14496565  0.68510915    -0.08360
C964        C  0.56268656  0.12434538  0.66120922    -0.05740
C965        C  0.53096128  0.12869000  0.64914030     0.00200
C966        C  0.51313487  0.15657451  0.65945710    -0.08270
C967        C  0.47949843  0.16383697  0.64634754     0.62110
H968        H  0.51327638  0.19801498  0.69280478     0.12800
H969        H  0.57662223  0.10366989  0.65254050     0.12810
C970        C  0.60965412  0.13756019  0.69888723     0.62340
F971        F  0.46624796  0.19144659  0.66069173    -0.22830
F972        F  0.45928280  0.13833163  0.65217254    -0.20150
F973        F  0.48082450  0.16867609  0.61338496    -0.19830
F974        F  0.60798725  0.13338020  0.73194048    -0.19880
F975        F  0.63012660  0.16277714  0.69294004    -0.20210
F976        F  0.62291754  0.10967068  0.68513926    -0.22880
C977        C  0.30583722  0.98439835  0.91625766    -0.05720
C978        C  0.30436979  0.95443098  0.89927932     0.00210
C979        C  0.33458815  0.93751767  0.89383098    -0.08360
C980        C  0.36361947  0.95189225  0.90480545    -0.05740
C981        C  0.36399913  0.98082806  0.92280967     0.00200
C982        C  0.33431669  0.99620480  0.93050963    -0.08270
C983        C  0.33161121  0.02485642  0.95406482     0.62110
H984        H  0.28426662  0.99907125  0.91912482     0.12800
H985        H  0.38665216  0.94073514  0.89891926     0.12810
C986        C  0.33811347  0.90480686  0.87669829     0.62340
F987        F  0.30220734  0.02486312  0.96961904    -0.22830
F988        F  0.33383603  0.05314245  0.93726900    -0.20150
F989        F  0.35541718  0.02377513  0.97787316    -0.19830
F990        F  0.33626125  0.90835088  0.84351092    -0.19880
F991        F  0.31486931  0.88421579  0.88704111    -0.20210
F992        F  0.36763309  0.89022864  0.88346062    -0.22880
C993        C  0.52621973  0.88153936  0.84699236    -0.05720
C994        C  0.55600338  0.88748013  0.83269688     0.00210
C995        C  0.57383858  0.91496655  0.84231971    -0.08360
C996        C  0.56071101  0.93625924  0.86560040    -0.05740
C997        C  0.52986637  0.93182044  0.87874506     0.00200
C998        C  0.51269305  0.90320603  0.87017287    -0.08270
C999        C  0.48013607  0.89569268  0.88445161     0.62110
H1000       H  0.51319546  0.86019101  0.83897111     0.12800
H1001       H  0.57440239  0.95734386  0.87302735     0.12810
C1002       C  0.60602735  0.92251436  0.82706175     0.62340
F1003       F  0.46746001  0.86730350  0.87149083    -0.22830
F1004       F  0.45837081  0.92043345  0.87818804    -0.20150
F1005       F  0.48344276  0.89208502  0.91753382    -0.19830
F1006       F  0.60205965  0.92553024  0.79396633    -0.19880
F1007       F  0.62802326  0.89795006  0.83304567    -0.20210
F1008       F  0.61889187  0.95109009  0.83934605    -0.22880
C1009       C  0.56828174  0.16148863  0.87052973    -0.05720
C1010       C  0.53894380  0.14537868  0.86938081     0.00210
C1011       C  0.51725199  0.15027645  0.84328796    -0.08360
C1012       C  0.52609745  0.17115667  0.81873896    -0.05740
C1013       C  0.55717670  0.18459932  0.81745494     0.00200
C1014       C  0.57854553  0.18047726  0.84483014    -0.08270
C1015       C  0.61212169  0.19495916  0.84811534     0.62110
H1016       H  0.58379870  0.15777309  0.89146077     0.12800
H1017       H  0.50917145  0.17561213  0.79912663     0.12810
C1018       C  0.48518228  0.13296563  0.84103844     0.62340
F1019       F  0.62972185  0.18179554  0.87341241    -0.22830
F1020       F  0.60951458  0.22778917  0.85483242    -0.20150
F1021       F  0.62967922  0.18911328  0.82033511    -0.19830
F1022       F  0.46777447  0.13956158  0.86872018    -0.19880
F1023       F  0.49042686  0.09998686  0.83786918    -0.20210
F1024       F  0.46676774  0.14255936  0.81467288    -0.22880
C1025       C  0.44845456  0.19858654  0.10898912    -0.05720
C1026       C  0.44128865  0.22565632  0.09030382     0.00210
C1027       C  0.44041310  0.22273997  0.05610056    -0.08360
C1028       C  0.44956690  0.19314177  0.04177749    -0.05740
C1029       C  0.45758891  0.16615885  0.06035252     0.00200
C1030       C  0.45559454  0.16832305  0.09459795    -0.08270
C1031       C  0.46034265  0.13923404  0.11599074     0.62110
H1032       H  0.44778787  0.20134497  0.13512372     0.12800
H1033       H  0.45011685  0.19074241  0.01560613     0.12810
C1034       C  0.42867772  0.24999226  0.03462896     0.62340
F1035       F  0.45969691  0.14781497  0.14859965    -0.22830
F1036       F  0.48969478  0.12439778  0.10996434    -0.20150
F1037       F  0.43585613  0.11740845  0.10993701    -0.19830
F1038       F  0.45171872  0.27374370  0.03341981    -0.19880
F1039       F  0.40026688  0.26325676  0.04646965    -0.20210
F1040       F  0.42260270  0.23905478  0.00319298    -0.22880
C1041       C  0.88290394  0.36576550  0.00635032    -0.05720
C1042       C  0.91674530  0.36509832  0.00267356     0.00210
C1043       C  0.93223473  0.33438529  0.99672345    -0.08360
C1044       C  0.91320353  0.30671429  0.99319194    -0.05740
C1045       C  0.87969341  0.30777953  0.99599160     0.00200
C1046       C  0.86421088  0.33754538  0.00388228    -0.08270
C1047       C  0.82817486  0.34035059  0.00943967     0.62110
H1048       H  0.87072650  0.38863480  0.01125217     0.12800
H1049       H  0.92436819  0.28370841  0.98668679     0.12810
C1050       C  0.96843903  0.32984439  0.99289220     0.62340
F1051       F  0.82168381  0.36399386  0.03284438    -0.22830
F1052       F  0.81572107  0.31166902  0.02006086    -0.20150
F1053       F  0.81273308  0.34871835  0.98093274    -0.19830
F1054       F  0.98446981  0.34145610  0.02031687    -0.19880
F1055       F  0.97804530  0.34571269  0.96567833    -0.20210
F1056       F  0.97747098  0.29767027  0.98876407    -0.22880
C1057       C  0.82378224  0.58208584  0.11261229    -0.05720
C1058       C  0.81742031  0.56441744  0.14029438     0.00210
C1059       C  0.83902077  0.53967894  0.14990751    -0.08360
C1060       C  0.86502836  0.53154578  0.12978531    -0.05740
C1061       C  0.87099742  0.54856063  0.10158703     0.00200
C1062       C  0.85103215  0.57534987  0.09355605    -0.08270
C1063       C  0.85709277  0.59770901  0.06579591     0.62110
H1064       H  0.80746863  0.60161878  0.10605728     0.12800
H1065       H  0.88133535  0.51198098  0.13619750     0.12810
C1066       C  0.83498874  0.52258019  0.18164345     0.62340
F1067       F  0.83203029  0.59513102  0.04346118    -0.22830
F1068       F  0.88579494  0.59121952  0.05021377    -0.20150
F1069       F  0.85811602  0.62926829  0.07761747    -0.19830
F1070       F  0.80677952  0.50520102  0.18074071    -0.19880
F1071       F  0.83382710  0.54514155  0.20691620    -0.20210
F1072       F  0.86030301  0.50136725  0.18777175    -0.22880
C1073       C  0.07450659  0.41493164  0.17714974    -0.05720
C1074       C  0.08651311  0.44097157  0.15980594     0.00210
C1075       C  0.11322384  0.45847835  0.17277549    -0.08360
C1076       C  0.12537996  0.45032818  0.20346078    -0.05740
C1077       C  0.11133510  0.42610453  0.22144115     0.00200
C1078       C  0.08576563  0.40765423  0.20809508    -0.08270
C1079       C  0.06880524  0.38054111  0.22503801     0.62110
H1080       H  0.05483338  0.40069382  0.16701421     0.12800
H1081       H  0.14546495  0.46344613  0.21423978     0.12810
C1082       C  0.12783335  0.48657085  0.15561259     0.62340
F1083       F  0.03634000  0.38823830  0.22749900    -0.22830
F1084       F  0.08058031  0.37482921  0.25578459    -0.20150
F1085       F  0.07198377  0.35225131  0.20673961    -0.19830
F1086       F  0.10444427  0.51005805  0.15140872    -0.19880
F1087       F  0.13963843  0.47623589  0.12591046    -0.20210
F1088       F  0.15306532  0.50039569  0.17315381    -0.22880
C1089       C  0.84097878  0.56870643  0.93478209    -0.05720
C1090       C  0.84877488  0.57639733  0.90292410     0.00210
C1091       C  0.88061086  0.57020948  0.89202924    -0.08360
C1092       C  0.90308441  0.55570769  0.91343228    -0.05740
C1093       C  0.89401941  0.54486602  0.94402836     0.00200
C1094       C  0.86191233  0.55076119  0.95446972    -0.08270
C1095       C  0.84847276  0.53625639  0.98480504     0.62110
H1096       H  0.81670586  0.57404471  0.94289756     0.12800
H1097       H  0.92768311  0.55137982  0.90580733     0.12810
C1098       C  0.89069382  0.57780963  0.85789450     0.62340
F1099       F  0.81763093  0.54750312  0.99157131    -0.22830
F1100       F  0.86788376  0.54363967  0.01125143    -0.20150
F1101       F  0.84689104  0.50309844  0.98029810    -0.19830
F1102       F  0.89067476  0.61087965  0.85410651    -0.19880
F1103       F  0.86965135  0.56374777  0.83555557    -0.20210
F1104       F  0.92143757  0.56621628  0.85129566    -0.22880
C1105       C  0.61210336  0.16313524  0.09244212    -0.05720
C1106       C  0.64019573  0.17500718  0.07882932     0.00210
C1107       C  0.65122338  0.16162642  0.04899376    -0.08360
C1108       C  0.63230952  0.13799458  0.03262733    -0.05740
C1109       C  0.60314022  0.12759284  0.04547554     0.00200
C1110       C  0.59316290  0.13985202  0.07608010    -0.08270
C1111       C  0.56135516  0.13000017  0.09021456     0.62110
H1112       H  0.60402980  0.17384475  0.11517560     0.12800
H1113       H  0.63952120  0.12835139  0.00916803     0.12810
C1114       C  0.68276442  0.17229734  0.03474157     0.62340
F1115       F  0.55590076  0.14479877  0.12011664    -0.22830
F1116       F  0.56110486  0.09691290  0.09403926    -0.20150
F1117       F  0.53658370  0.13878475  0.06940542    -0.19830
F1118       F  0.70739542  0.16857251  0.05733116    -0.19880
F1119       F  0.68062325  0.20439225  0.02641171    -0.20210
F1120       F  0.69060860  0.15419921  0.00725272    -0.22880
C1121       C  0.39250195  0.32841304  0.74671059    -0.05720
C1122       C  0.38902034  0.36212502  0.74628113     0.00210
C1123       C  0.35888308  0.37665547  0.75385328    -0.08360
C1124       C  0.33284197  0.35669691  0.76111376    -0.05740
C1125       C  0.33629829  0.32293411  0.76188356     0.00200
C1126       C  0.36671600  0.30838335  0.75476318    -0.08270
C1127       C  0.37262925  0.27217336  0.75724294     0.62110
H1128       H  0.41607741  0.31799198  0.74176081     0.12800
H1129       H  0.30952828  0.36734577  0.76675896     0.12810
C1130       C  0.35452352  0.41312376  0.75481622     0.62340
F1131       F  0.40515403  0.26433901  0.75562186    -0.22830
F1132       F  0.35706012  0.25585396  0.73210261    -0.20150
F1133       F  0.36141189  0.26150515  0.78644634    -0.19830
F1134       F  0.36114533  0.42511986  0.72473884    -0.19880
F1135       F  0.37522112  0.42683019  0.77769190    -0.20210
F1136       F  0.32334393  0.42232411  0.76276140    -0.22880
C1137       C  0.49367053  0.41468161  0.66676911    -0.05720
C1138       C  0.46850480  0.42882871  0.68496117     0.00210
C1139       C  0.45919281  0.46140646  0.67941484    -0.08360
C1140       C  0.47628342  0.47891242  0.65681826    -0.05740
C1141       C  0.50225708  0.46535255  0.63988755     0.00200
C1142       C  0.51075841  0.43255370  0.64406700    -0.08270
C1143       C  0.53833476  0.41713288  0.62531200     0.62110
H1144       H  0.50087504  0.39001627  0.67168270     0.12800
H1145       H  0.46973017  0.50390816  0.65287089     0.12810
C1146       C  0.43245773  0.47964239  0.69714719     0.62340
F1147       F  0.54303684  0.38503067  0.63299534    -0.22830
F1148       F  0.56656477  0.43355776  0.63228283    -0.20150
F1149       F  0.53172819  0.41854937  0.59246594    -0.19830
F1150       F  0.44546889  0.50572341  0.71415318    -0.19880
F1151       F  0.41613629  0.46104192  0.71860537    -0.20210
F1152       F  0.41027047  0.49108389  0.67474763    -0.22880
C1153       C  0.67805039  0.49696128  0.12968454    -0.05720
C1154       C  0.65351202  0.51733614  0.11814933     0.00210
C1155       C  0.65022266  0.54903253  0.13136110    -0.08360
C1156       C  0.67490613  0.56117864  0.15171105    -0.05740
C1157       C  0.70187488  0.54206894  0.16008334     0.00200
C1158       C  0.70162185  0.50851838  0.15170714    -0.08270
C1159       C  0.72577301  0.48431544  0.16500031     0.62110
H1160       H  0.67951069  0.47217665  0.12057414     0.12800
H1161       H  0.67447671  0.58650550  0.15885002     0.12810
C1162       C  0.62095104  0.56996097  0.12356585     0.62340
F1163       F  0.70957760  0.45770774  0.17586227    -0.22830
F1164       F  0.74334661  0.49706614  0.19088005    -0.20150
F1165       F  0.74659868  0.47419613  0.14080512    -0.19830
F1166       F  0.59319054  0.55328413  0.13022322    -0.19880
F1167       F  0.62064374  0.57778253  0.09125329    -0.20210
F1168       F  0.62069059  0.59844351  0.14189852    -0.22880
C1169       C  0.68888185  0.56798816  0.91625314    -0.05720
C1170       C  0.67800103  0.53698927  0.90856615     0.00210
C1171       C  0.69623471  0.51633389  0.88775404    -0.08360
C1172       C  0.72381007  0.52888944  0.87309445    -0.05740
C1173       C  0.73490754  0.55997262  0.88146215     0.00200
C1174       C  0.71826756  0.57889526  0.90526929    -0.08270
C1175       C  0.73078609  0.60915164  0.92257390     0.62110
H1176       H  0.67552121  0.58293072  0.93356095     0.12800
H1177       H  0.73777664  0.51407292  0.85630215     0.12810
C1178       C  0.68814765  0.48084813  0.88331833     0.62340
F1179       F  0.73183565  0.60403869  0.95556382    -0.22830
F1180       F  0.70969081  0.63460360  0.91694064    -0.20150
F1181       F  0.76137812  0.61761866  0.91366824    -0.19830
F1182       F  0.65810293  0.47761800  0.86878618    -0.19880
F1183       F  0.68803872  0.46650987  0.91322822    -0.20210
F1184       F  0.71050206  0.46449287  0.86421656    -0.22880
C1185       C  0.50434961  0.37322036  0.10038373    -0.05720
C1186       C  0.48831743  0.39099042  0.07626166     0.00210
C1187       C  0.45462341  0.38708874  0.07116867    -0.08360
C1188       C  0.43909621  0.36265319  0.08767210    -0.05740
C1189       C  0.45599381  0.34297058  0.10928390     0.00200
C1190       C  0.48851979  0.34931256  0.11735359    -0.08270
C1191       C  0.50609486  0.33113270  0.14395016     0.62110
H1192       H  0.52982645  0.37713813  0.10489229     0.12800
H1193       H  0.41398867  0.35741866  0.08234156     0.12810
C1194       C  0.43496844  0.40799544  0.04829844     0.62340
F1195       F  0.53674281  0.34308644  0.14981148    -0.22830
F1196       F  0.50910358  0.29871606  0.13559311    -0.20150
F1197       F  0.48886402  0.33425377  0.17231445    -0.19830
F1198       F  0.44097644  0.39863445  0.01656750    -0.19880
F1199       F  0.44280793  0.44018551  0.05317262    -0.20210
F1200       F  0.40217552  0.40517373  0.05337672    -0.22880
C1201       C  0.60303601  0.33637704  0.07190790    -0.05720
C1202       C  0.62756469  0.35889102  0.06807789     0.00210
C1203       C  0.65992453  0.35041784  0.07514008    -0.08360
C1204       C  0.66700375  0.31859576  0.08411886    -0.05740
C1205       C  0.64266291  0.29546412  0.08674546     0.00200
C1206       C  0.60991670  0.30463242  0.08146104    -0.08270
C1207       C  0.58221286  0.28156863  0.08634820     0.62110
H1208       H  0.57842692  0.34362825  0.06623740     0.12800
H1209       H  0.69174193  0.31145098  0.08926396     0.12810
C1210       C  0.68654793  0.37519557  0.07398874     0.62340
F1211       F  0.55262172  0.29735426  0.08489381    -0.22830
F1212       F  0.58509102  0.26762477  0.11635548    -0.20150
F1213       F  0.58218083  0.25765090  0.06242873    -0.19830
F1214       F  0.67843501  0.40187360  0.09319031    -0.19880
F1215       F  0.69062590  0.38478610  0.04255181    -0.20210
F1216       F  0.71573802  0.36294345  0.08520158    -0.22880
C1217       C  0.51286217  0.61611917  0.90447002    -0.05720
C1218       C  0.49980608  0.58582425  0.91062293     0.00210
C1219       C  0.47075006  0.57620517  0.89501442    -0.08360
C1220       C  0.45685994  0.59635876  0.87160356    -0.05740
C1221       C  0.47090282  0.62582073  0.86405464     0.00200
C1222       C  0.49851919  0.63663323  0.88152099    -0.08270
C1223       C  0.51263144  0.66959638  0.87569480     0.62110
H1224       H  0.53481868  0.62317455  0.91715805     0.12800
H1225       H  0.43563731  0.58868581  0.85800491     0.12810
C1226       C  0.45497001  0.54447898  0.90278494     0.62340
F1227       F  0.53828126  0.67629705  0.89652781    -0.22830
F1228       F  0.48913258  0.69316879  0.88054701    -0.20150
F1229       F  0.52349996  0.67102472  0.84431581    -0.19830
F1230       F  0.44621170  0.54504178  0.93496400    -0.19880
F1231       F  0.47632461  0.51911088  0.89736495    -0.20210
F1232       F  0.42757595  0.53897361  0.88398187    -0.22880
C1233       C  0.49259903  0.45765776  0.84474636    -0.05720
C1234       C  0.50354007  0.43347628  0.86548447     0.00210
C1235       C  0.50275034  0.40065544  0.85492018    -0.08360
C1236       C  0.49053359  0.39327728  0.82372546    -0.05740
C1237       C  0.47891756  0.41752918  0.80333131     0.00200
C1238       C  0.47946017  0.45033867  0.81407124    -0.08270
C1239       C  0.46527947  0.47757069  0.79407955     0.62110
H1240       H  0.49433700  0.48261106  0.85289726     0.12800
H1241       H  0.48935868  0.36835987  0.81512041     0.12810
C1242       C  0.51485463  0.37361095  0.87615870     0.62340
F1243       F  0.46350513  0.50642018  0.81174893    -0.22830
F1244       F  0.43434499  0.46991934  0.78385416    -0.20150
F1245       F  0.48429492  0.48261302  0.76753807    -0.19830
F1246       F  0.49444604  0.37082514  0.90203875    -0.19880
F1247       F  0.54576237  0.38011090  0.88737207    -0.20210
F1248       F  0.51570420  0.34412920  0.85953938    -0.22880
C1249       C  0.38506339  0.12532738  0.48978938    -0.05720
C1250       C  0.38569359  0.09123211  0.48854049     0.00210
C1251       C  0.35810361  0.07442332  0.47615883    -0.08360
C1252       C  0.33191142  0.09236758  0.46443933    -0.05740
C1253       C  0.33170381  0.12606819  0.46513337     0.00200
C1254       C  0.35832169  0.14315932  0.47824809    -0.08270
C1255       C  0.35803475  0.17982188  0.48076272     0.62110
H1256       H  0.40580706  0.13799167  0.49972576     0.12800
H1257       H  0.31118000  0.08011504  0.45386982     0.12810
C1258       C  0.35541219  0.03780789  0.47519194     0.62340
F1259       F  0.38482920  0.19146187  0.49747492    -0.22830
F1260       F  0.33079160  0.19045594  0.49700534    -0.20150
F1261       F  0.35787308  0.19268320  0.45021412    -0.19830
F1262       F  0.36226816  0.02577043  0.50549909    -0.19880
F1263       F  0.37647366  0.02494680  0.45249650    -0.20210
F1264       F  0.32471081  0.02764589  0.46643358    -0.22880
C1265       C  0.97198764  0.88527647  0.32848702    -0.05720
C1266       C  0.94941975  0.90604898  0.31390633     0.00210
C1267       C  0.93595980  0.93195555  0.33213403    -0.08360
C1268       C  0.94670151  0.93712885  0.36416051    -0.05740
C1269       C  0.97105728  0.91784671  0.37872815     0.00200
C1270       C  0.98319089  0.89059115  0.36067775    -0.08270
C1271       C  0.00738449  0.86688588  0.37486384     0.62110
H1272       H  0.98106819  0.86497844  0.31411073     0.12800
H1273       H  0.93644883  0.95734860  0.37769045     0.12810
C1274       C  0.91025435  0.95411295  0.31774666     0.62340
F1275       F  0.01327629  0.84080750  0.35402043    -0.22830
F1276       F  0.99541271  0.85491716  0.40319330    -0.20150
F1277       F  0.03645538  0.88206883  0.38098291    -0.19830
F1278       F  0.88426669  0.93605349  0.30676429    -0.19880
F1279       F  0.92285213  0.97054505  0.29217714    -0.20210
F1280       F  0.89900946  0.97683105  0.34018130    -0.22880
C1281       C  0.14242369  0.86352530  0.54463992    -0.05720
C1282       C  0.10858201  0.86391441  0.54184301     0.00210
C1283       C  0.09142968  0.83566096  0.54954862    -0.08360
C1284       C  0.10877112  0.80822797  0.55978844    -0.05740
C1285       C  0.14255072  0.80768884  0.56231157     0.00200
C1286       C  0.15987391  0.83577179  0.55419606    -0.08270
C1287       C  0.19653591  0.83691670  0.55499038     0.62110
H1288       H  0.15530843  0.88521652  0.53883970     0.12800
H1289       H  0.09591713  0.78672850  0.56620932     0.12810
C1290       C  0.05491511  0.83451716  0.54816648     0.62340
F1291       F  0.20775731  0.86121754  0.53579675    -0.22830
F1292       F  0.20971608  0.80804164  0.54351571    -0.20150
F1293       F  0.20737144  0.84300370  0.58631780    -0.19830
F1294       F  0.04434410  0.83517207  0.51637529    -0.19880
F1295       F  0.04222901  0.86068764  0.56536920    -0.20210
F1296       F  0.04328249  0.80660482  0.56135703    -0.22880
C1297       C  0.14729547  0.10794573  0.55809992    -0.05720
C1298       C  0.13807146  0.07867932  0.57192850     0.00210
C1299       C  0.15137604  0.07051968  0.60270735    -0.08360
C1300       C  0.17484311  0.09087094  0.61719935    -0.05740
C1301       C  0.18505110  0.11898207  0.60234173     0.00200
C1302       C  0.17053619  0.12825396  0.57285498    -0.08270
C1303       C  0.17994753  0.15940124  0.55704992     0.62110
H1304       H  0.13699658  0.11436533  0.53486391     0.12800
H1305       H  0.18642625  0.08433822  0.63982383     0.12810
C1306       C  0.14110643  0.04074187  0.62053522     0.62340
F1307       F  0.16154590  0.16517525  0.52955050    -0.22830
F1308       F  0.21201619  0.15783173  0.54830968    -0.20150
F1309       F  0.17543867  0.18512175  0.57862949    -0.19830
F1310       F  0.15305909  0.01317376  0.60510522    -0.19880
F1311       F  0.10779395  0.03952986  0.62150334    -0.20210
F1312       F  0.15261345  0.04102345  0.65218300    -0.22880
C1313       C  0.15672656  0.11610901  0.44701490    -0.05720
C1314       C  0.16034370  0.08288648  0.45284158     0.00210
C1315       C  0.19159288  0.07013939  0.45956702    -0.08360
C1316       C  0.21817001  0.09037400  0.45697827    -0.05740
C1317       C  0.21480346  0.12328000  0.44994743     0.00200
C1318       C  0.18338846  0.13683463  0.44646370    -0.08270
C1319       C  0.17657888  0.17268406  0.44271867     0.62110
H1320       H  0.13271094  0.12612781  0.44325480     0.12800
H1321       H  0.24218945  0.08001717  0.45918405     0.12810
C1322       C  0.19743648  0.03543468  0.46957865     0.62340
F1323       F  0.15262679  0.18256867  0.46389546    -0.22830
F1324       F  0.16598364  0.17817000  0.41142051    -0.20150
F1325       F  0.20329137  0.19149971  0.44948905    -0.19830
F1326       F  0.19260671  0.01484076  0.44318260    -0.19880
F1327       F  0.17677148  0.02772965  0.49417966    -0.20210
F1328       F  0.22867132  0.03050518  0.48092974    -0.22880
C1329       C  0.89491779  0.87317078  0.56214407    -0.05720
C1330       C  0.90739872  0.84209492  0.56799579     0.00210
C1331       C  0.94109428  0.83643040  0.56483513    -0.08360
C1332       C  0.95998539  0.86056826  0.55158330    -0.05740
C1333       C  0.94761166  0.89155482  0.54549080     0.00200
C1334       C  0.91463047  0.89843236  0.55203585    -0.08270
C1335       C  0.89991831  0.93186893  0.54777274     0.62110
H1336       H  0.86929622  0.87741172  0.56512735     0.12800
H1337       H  0.98521906  0.85550193  0.54721227     0.12810
C1338       C  0.95876029  0.80629134  0.57624112     0.62340
F1339       F  0.86683090  0.93211125  0.55195466    -0.22830
F1340       F  0.90588611  0.94252537  0.51697630    -0.20150
F1341       F  0.91308366  0.95309764  0.57057795    -0.19830
F1342       F  0.96831595  0.78773280  0.54966422    -0.19880
F1343       F  0.94037879  0.78774141  0.59614780    -0.20210
F1344       F  0.98590641  0.81526279  0.59398248    -0.22880
C1345       C  0.05751769  0.58245941  0.16868811    -0.05720
C1346       C  0.07506109  0.57412787  0.14073589     0.00210
C1347       C  0.10832753  0.58179557  0.13993333    -0.08360
C1348       C  0.12336249  0.59408501  0.16843620    -0.05740
C1349       C  0.10593437  0.60118684  0.19683652     0.00200
C1350       C  0.07188658  0.59735535  0.19607375    -0.08270
C1351       C  0.04962806  0.60898189  0.22307233     0.62110
H1352       H  0.03199836  0.57713390  0.16929437     0.12800
H1353       H  0.14917473  0.59783148  0.16878570     0.12810
C1354       C  0.12785161  0.57800606  0.10919122     0.62340
F1355       F  0.02019602  0.61898913  0.21032719    -0.22830
F1356       F  0.06221208  0.63509518  0.24034188    -0.20150
F1357       F  0.04413992  0.58393696  0.24376984    -0.19830
F1358       F  0.11079617  0.59097049  0.08346911    -0.19880
F1359       F  0.13448025  0.54573103  0.10259327    -0.20210
F1360       F  0.15694926  0.59400776  0.11195749    -0.22880
C1361       C  0.64903446  0.54592728  0.40336399    -0.05720
C1362       C  0.64277291  0.52590166  0.42962198     0.00210
C1363       C  0.65466653  0.49332557  0.42836999    -0.08360
C1364       C  0.67540347  0.48364324  0.40342469    -0.05740
C1365       C  0.68461910  0.50476392  0.37956698     0.00200
C1366       C  0.66997514  0.53574516  0.37818623    -0.08270
C1367       C  0.67646007  0.55749102  0.35012612     0.62110
H1368       H  0.63901986  0.57021950  0.40362828     0.12800
H1369       H  0.68699284  0.46002090  0.40400588     0.12810
C1370       C  0.64848392  0.46897892  0.45440298     0.62340
F1371       F  0.65787402  0.58549714  0.35169340    -0.22830
F1372       F  0.66911239  0.54120175  0.32134401    -0.20150
F1373       F  0.70858970  0.56602776  0.35016169    -0.19830
F1374       F  0.61664721  0.47060820  0.46397717    -0.19880
F1375       F  0.66895511  0.47520809  0.48045351    -0.20210
F1376       F  0.65446714  0.43757719  0.44347656    -0.22880
C1377       C  0.11552446  0.63910207  0.56301182    -0.05720
C1378       C  0.11236322  0.63578178  0.52938165     0.00210
C1379       C  0.12980386  0.65649278  0.50946066    -0.08360
C1380       C  0.14862998  0.68119564  0.52432133    -0.05740
C1381       C  0.14949040  0.68643362  0.55824319     0.00200
C1382       C  0.13290134  0.66442445  0.57793631    -0.08270
C1383       C  0.13101865  0.66855920  0.61441650     0.62110
H1384       H  0.10204816  0.62273479  0.57763118     0.12800
H1385       H  0.16120069  0.69800244  0.50942702     0.12810
C1386       C  0.12679218  0.65376991  0.47285178     0.62340
F1387       F  0.10882301  0.64808214  0.62763547    -0.22830
F1388       F  0.12154290  0.69985891  0.62241291    -0.20150
F1389       F  0.16071946  0.66140658  0.62813925    -0.19830
F1390       F  0.09496068  0.65846111  0.46342386    -0.19880
F1391       F  0.13700834  0.62339437  0.46234546    -0.20210
F1392       F  0.14529292  0.67649454  0.45783767    -0.22880
C1393       C  0.88647906  0.72388921  0.52136152    -0.05720
C1394       C  0.87219990  0.72698020  0.55209174     0.00210
C1395       C  0.87133290  0.69895191  0.57197454    -0.08360
C1396       C  0.88734799  0.67066711  0.56114118    -0.05740
C1397       C  0.90476655  0.66958728  0.53260553     0.00200
C1398       C  0.90401698  0.69611762  0.51188071    -0.08270
C1399       C  0.92256013  0.69535137  0.48046840     0.62110
H1400       H  0.88570703  0.74438540  0.50558203     0.12800
H1401       H  0.88771411  0.64920105  0.57563409     0.12810
C1402       C  0.85466541  0.69756026  0.60462163     0.62340
F1403       F  0.91730067  0.72303103  0.46290223    -0.22830
F1404       F  0.91306346  0.66907056  0.46150150    -0.20150
F1405       F  0.95525272  0.69284050  0.48717256    -0.19830
F1406       F  0.82157201  0.69792213  0.60004227    -0.19880
F1407       F  0.86403082  0.72292076  0.62476824    -0.20210
F1408       F  0.86226342  0.66946098  0.62074294    -0.22880
C1409       C  0.09640104  0.47270132  0.33750114    -0.05720
C1410       C  0.10807840  0.44091103  0.34140478     0.00210
C1411       C  0.10092655  0.42475717  0.37061911    -0.08360
C1412       C  0.08408525  0.44206855  0.39507827    -0.05740
C1413       C  0.07109311  0.47282466  0.38964286     0.00200
C1414       C  0.07524919  0.48731211  0.35953835    -0.08270
C1415       C  0.05387221  0.51516733  0.34869729     0.62110
H1416       H  0.10169425  0.48516909  0.31550567     0.12800
H1417       H  0.07985137  0.43121097  0.41821770     0.12810
C1418       C  0.10919416  0.38942803  0.37630334     0.62340
F1419       F  0.06429811  0.52817571  0.32015718    -0.22830
F1420       F  0.05303095  0.53943022  0.37193722    -0.20150
F1421       F  0.02285849  0.50401758  0.34369718    -0.19830
F1422       F  0.14102534  0.38644044  0.38626958    -0.19880
F1423       F  0.10382913  0.37081922  0.34850782    -0.20210
F1424       F  0.09023319  0.37701927  0.40027413    -0.22880
C1425       C  0.10743188  0.58300321  0.36664120    -0.05720
C1426       C  0.08351963  0.60584397  0.37604740     0.00210
C1427       C  0.07820000  0.63336927  0.35666541    -0.08360
C1428       C  0.09486364  0.63546927  0.32744582    -0.05740
C1429       C  0.11670807  0.61143925  0.31707126     0.00200
C1430       C  0.12384423  0.58512313  0.33711269    -0.08270
C1431       C  0.14836383  0.55941955  0.32705818     0.62110
H1432       H  0.11194575  0.56235389  0.38170967     0.12800
H1433       H  0.09022883  0.65567845  0.31178103     0.12810
C1434       C  0.05498429  0.66052819  0.36612228     0.62340
F1435       F  0.15249998  0.53622587  0.35039391    -0.22830
F1436       F  0.17786397  0.57364800  0.32214952    -0.20150
F1437       F  0.13826117  0.54408203  0.29863132    -0.19830
F1438       F  0.05857518  0.66844795  0.39870546    -0.19880
F1439       F  0.02365540  0.65105428  0.35956822    -0.20210
F1440       F  0.06059008  0.68818591  0.34895453    -0.22880
C1441       C  0.86608024  0.48651472  0.58039846    -0.05720
C1442       C  0.89662476  0.49621951  0.59191604     0.00210
C1443       C  0.90403990  0.49303096  0.62551693    -0.08360
C1444       C  0.87995548  0.48201950  0.64639741    -0.05740
C1445       C  0.84908903  0.47367720  0.63495501     0.00200
C1446       C  0.84234496  0.47484419  0.60116601    -0.08270
C1447       C  0.81017997  0.46393569  0.58686120     0.62110
H1448       H  0.86073025  0.48845739  0.55476724     0.12800
H1449       H  0.88468153  0.48080780  0.67219550     0.12810
C1450       C  0.93675538  0.50216146  0.63973146     0.62340
F1451       F  0.81163080  0.45951886  0.55356422    -0.22830
F1452       F  0.78655327  0.48688934  0.59340488    -0.20150
F1453       F  0.80154993  0.43482826  0.59983045    -0.19830
F1454       F  0.94433212  0.53328492  0.63128992    -0.19880
F1455       F  0.96001088  0.48075558  0.62821539    -0.20210
F1456       F  0.93734897  0.50102968  0.67321176    -0.22880
C1457       C  0.83542727  0.49963639  0.43859117    -0.05720
C1458       C  0.86315860  0.50467922  0.42026038     0.00210
C1459       C  0.86014455  0.50632015  0.38601936    -0.08360
C1460       C  0.82952869  0.50242390  0.37150891    -0.05740
C1461       C  0.80203372  0.49687611  0.38979457     0.00200
C1462       C  0.80483481  0.49531981  0.42400737    -0.08270
C1463       C  0.77608545  0.48837895  0.44515758     0.62110
H1464       H  0.83798966  0.49907992  0.46471215     0.12800
H1465       H  0.82681652  0.50281852  0.34538827     0.12810
C1466       C  0.88882272  0.51169305  0.36451580     0.62340
F1467       F  0.78540548  0.48301303  0.47691371    -0.22830
F1468       F  0.76028762  0.46110482  0.43356927    -0.20150
F1469       F  0.75491837  0.51441742  0.44540299    -0.19830
F1470       F  0.90838195  0.48450608  0.36477068    -0.19880
F1471       F  0.90595259  0.53838663  0.37539631    -0.20210
F1472       F  0.87956287  0.51688875  0.33270259    -0.22880
C1473       C  0.36453808  0.91688243  0.05797483    -0.05720
C1474       C  0.35450204  0.93058703  0.08751331     0.00210
C1475       C  0.37140834  0.95715812  0.10132459    -0.08360
C1476       C  0.39592926  0.97107942  0.08328889    -0.05740
C1477       C  0.40450773  0.95918876  0.05221253     0.00200
C1478       C  0.38977325  0.93011351  0.04022210    -0.08270
C1479       C  0.39955152  0.91304702  0.00878703     0.62110
H1480       H  0.35135999  0.89625896  0.04832506     0.12800
H1481       H  0.40819124  0.99206528  0.09332138     0.12810
C1482       C  0.36335300  0.97121352  0.13470075     0.62340
F1483       F  0.38295482  0.88452718  0.00333148    -0.22830
F1484       F  0.43205672  0.90520859  0.01008102    -0.20150
F1485       F  0.39308942  0.93273201  0.98290503    -0.19830
F1486       F  0.37039387  0.94863111  0.15791527    -0.19880
F1487       F  0.33105348  0.97951003  0.13630701    -0.20210
F1488       F  0.38095570  0.99868757  0.14223377    -0.22880
C1489       C  0.97827065  0.12250544  0.35106966    -0.05720
C1490       C  0.97653701  0.15547231  0.35914223     0.00210
C1491       C  0.98923063  0.16632683  0.38966707    -0.08360
C1492       C  0.00076044  0.14295978  0.41190674    -0.05740
C1493       C  0.00184653  0.10975423  0.40342495     0.00200
C1494       C  0.99298319  0.10013120  0.37121464    -0.08270
C1495       C  0.99964707  0.06662706  0.35680763     0.62110
H1496       H  0.96853282  0.11410769  0.32789498     0.12800
H1497       H  0.00865147  0.15043253  0.43602136     0.12810
C1498       C  0.99170015  0.20203791  0.39830535     0.62340
F1499       F  0.00074883  0.06696073  0.32329584    -0.22830
F1500       F  0.97536424  0.04600217  0.36521666    -0.20150
F1501       F  0.02930011  0.05523263  0.36754821    -0.19830
F1502       F  0.96138124  0.21526074  0.40321085    -0.19880
F1503       F  0.00644704  0.21788391  0.37350411    -0.20210
F1504       F  0.00982527  0.20722989  0.42632848    -0.22880
C1505       C  0.20249093  0.30040030  0.87647788    -0.05720
C1506       C  0.22218789  0.30081508  0.90423818     0.00210
C1507       C  0.25608465  0.30145697  0.90111526    -0.08360
C1508       C  0.26932765  0.29935298  0.86988579    -0.05740
C1509       C  0.24966648  0.29779480  0.84180735     0.00200
C1510       C  0.21553416  0.30032123  0.84522914    -0.08270
C1511       C  0.19188485  0.30310954  0.81696749     0.62110
H1512       H  0.17652509  0.30017422  0.87934914     0.12800
H1513       H  0.29525821  0.29787586  0.86727283     0.12810
C1514       C  0.27798416  0.30404768  0.93079100     0.62340
F1515       F  0.16691598  0.32414177  0.82517323    -0.22830
F1516       F  0.17898056  0.27309253  0.80963512    -0.20150
F1517       F  0.20614510  0.31509989  0.78976936    -0.19830
F1518       F  0.27396615  0.27755456  0.95001359    -0.19880
F1519       F  0.27032078  0.33187605  0.94842165    -0.20210
F1520       F  0.31019666  0.30544279  0.92256781    -0.22880
C1521       C  0.13578861  0.34242202  0.01978779    -0.05720
C1522       C  0.16332672  0.34928216  0.00147803     0.00210
C1523       C  0.17093350  0.38262473  0.99786474    -0.08360
C1524       C  0.14734355  0.40652123  0.00561275    -0.05740
C1525       C  0.11871393  0.39861597  0.02111237     0.00200
C1526       C  0.11480315  0.36665518  0.03148504    -0.08270
C1527       C  0.08876139  0.35795598  0.05521921     0.62110
H1528       H  0.12913975  0.31783199  0.02404108     0.12800
H1529       H  0.15148905  0.43152767  0.99981008     0.12810
C1530       C  0.20373288  0.39451442  0.98796672     0.62340
F1531       F  0.09505295  0.32827628  0.06890428    -0.22830
F1532       F  0.05908133  0.35647822  0.03973992    -0.20150
F1533       F  0.08756857  0.38085092  0.08018846    -0.19830
F1534       F  0.20193792  0.40586209  0.95677440    -0.19880
F1535       F  0.22731048  0.37070497  0.98988477    -0.20210
F1536       F  0.21314426  0.41963997  0.00862394    -0.22880
C1537       C  0.13602412  0.96634776  0.94973296    -0.05720
C1538       C  0.13974505  0.00006916  0.95262612     0.00210
C1539       C  0.16542058  0.01457825  0.93609147    -0.08360
C1540       C  0.18669426  0.99467745  0.91805726    -0.05740
C1541       C  0.18440469  0.96072325  0.91681755     0.00200
C1542       C  0.15814844  0.94620476  0.93264816    -0.08270
C1543       C  0.15334323  0.90985650  0.93266362     0.62110
H1544       H  0.11614777  0.95560575  0.96218752     0.12800
H1545       H  0.20649002  0.00561029  0.90563810     0.12810
C1546       C  0.17111083  0.05083987  0.93775640     0.62340
F1547       F  0.13278475  0.90110764  0.95700427    -0.22830
F1548       F  0.18239568  0.89384324  0.93764740    -0.20150
F1549       F  0.13971744  0.89972356  0.90347313    -0.19830
F1550       F  0.18347779  0.05963252  0.96793578    -0.19880
F1551       F  0.14248687  0.06745757  0.93219943    -0.20210
F1552       F  0.19295543  0.06020290  0.91483040    -0.22880
C1553       C  0.20368719  0.99075231  0.07171707    -0.05720
C1554       C  0.17432856  0.97521565  0.07676894     0.00210
C1555       C  0.17495905  0.94181161  0.08377000    -0.08360
C1556       C  0.20515387  0.92604182  0.08724553    -0.05740
C1557       C  0.23468369  0.94249031  0.08520151     0.00200
C1558       C  0.23380692  0.97550984  0.07574287    -0.08270
C1559       C  0.26359167  0.99582841  0.06998717     0.62110
H1560       H  0.20297989  0.01585205  0.06513534     0.12800
H1561       H  0.20589212  0.90066740  0.09299163     0.12810
C1562       C  0.14428794  0.92266871  0.08774321     0.62340
F1563       F  0.25610624  0.02835145  0.06706772    -0.22830
F1564       F  0.27796491  0.98591530  0.04136540    -0.20150
F1565       F  0.28512961  0.99357358  0.09555146    -0.19830
F1566       F  0.12407841  0.92684745  0.06120663    -0.19880
F1567       F  0.12878188  0.93297143  0.11564706    -0.20210
F1568       F  0.15058239  0.88987371  0.09022070    -0.22880
C1569       C  0.90491442  0.17686895  0.97370174    -0.05720
C1570       C  0.88097671  0.18884961  0.99446548     0.00210
C1571       C  0.87925277  0.17621412  0.02607615    -0.08360
C1572       C  0.90387856  0.15476634  0.03695802    -0.05740
C1573       C  0.92991397  0.14545847  0.01711947     0.00200
C1574       C  0.92898857  0.15498736  0.98411433    -0.08270
C1575       C  0.95426691  0.14414977  0.95981393     0.62110
H1576       H  0.90600463  0.18652237  0.94958996     0.12800
H1577       H  0.90387235  0.14662142  0.06166675     0.12810
C1578       C  0.85133987  0.18522771  0.04802404     0.62340
F1579       F  0.94262547  0.14637828  0.92834369    -0.22830
F1580       F  0.96325752  0.11224617  0.96435075    -0.20150
F1581       F  0.98086288  0.16381779  0.96322466    -0.19830
F1582       F  0.82251314  0.17959285  0.03168163    -0.19880
F1583       F  0.85271224  0.21749291  0.05729974    -0.20210
F1584       F  0.85172904  0.16712087  0.07576510    -0.22880
C1585       C  0.18874299  0.20639340  0.99713789    -0.05720
C1586       C  0.17028232  0.23095309  0.98295467     0.00210
C1587       C  0.13758269  0.22530812  0.97464597    -0.08360
C1588       C  0.12384407  0.19590694  0.98293983    -0.05740
C1589       C  0.14130125  0.17186063  0.99954416     0.00200
C1590       C  0.17494386  0.17667074  0.00552807    -0.08270
C1591       C  0.19616873  0.15162918  0.02176015     0.62110
H1592       H  0.21395094  0.21113338  0.00232484     0.12800
H1593       H  0.09865940  0.19189676  0.97707096     0.12810
C1594       C  0.11703375  0.25037353  0.95722830     0.62340
F1595       F  0.22801399  0.16123040  0.02431490    -0.22830
F1596       F  0.19560971  0.12287209  0.00396812    -0.20150
F1597       F  0.18521032  0.14693379  0.05264141    -0.19830
F1598       F  0.13167878  0.25868007  0.92878966    -0.19880
F1599       F  0.11325078  0.27768600  0.97677163    -0.20210
F1600       F  0.08657308  0.23897665  0.94936718    -0.22880
C1601       C  0.99258471  0.94882213  0.16171227    -0.05720
C1602       C  0.97334552  0.97425975  0.14907843     0.00210
C1603       C  0.94019780  0.97579003  0.15805221    -0.08360
C1604       C  0.92921957  0.95472112  0.18201633    -0.05740
C1605       C  0.94948416  0.93121808  0.19583083     0.00200
C1606       C  0.98110909  0.92700879  0.18423241    -0.08270
C1607       C  0.00252937  0.89908369  0.19514047     0.62110
H1608       H  0.01735882  0.94598862  0.15421631     0.12800
H1609       H  0.90463076  0.95655801  0.19045562     0.12810
C1610       C  0.91594320  0.99813527  0.14187639     0.62340
F1611       F  0.03075555  0.89675150  0.17765170    -0.22830
F1612       F  0.98625271  0.87026799  0.19074609    -0.20150
F1613       F  0.01085023  0.90317490  0.22747460    -0.19830
F1614       F  0.91635420  0.99254779  0.10874871    -0.19880
F1615       F  0.92320551  0.03000573  0.14889846    -0.20210
F1616       F  0.88480625  0.99299070  0.15215966    -0.22880
C1617       C  0.96383132  0.12820208  0.24057132    -0.05720
C1618       C  0.96162107  0.16214162  0.24220459     0.00210
C1619       C  0.96810085  0.18001068  0.21422356    -0.08360
C1620       C  0.97610129  0.16299751  0.18534722    -0.05740
C1621       C  0.97901579  0.12913381  0.18403698     0.00200
C1622       C  0.97352367  0.11144210  0.21223809    -0.08270
C1623       C  0.97982348  0.07528044  0.21286572     0.62110
H1624       H  0.95918068  0.11495269  0.26227759     0.12800
H1625       H  0.98185772  0.17612475  0.16384865     0.12810
C1626       C  0.96882394  0.21673018  0.21531890     0.62340
F1627       F  0.97259407  0.06251005  0.24253882    -0.22830
F1628       F  0.01199701  0.06881291  0.20672801    -0.20150
F1629       F  0.96111332  0.05996764  0.18944351    -0.19830
F1630       F  0.98868618  0.22733496  0.24050301    -0.19880
F1631       F  0.93812246  0.22922224  0.21975599    -0.20210
F1632       F  0.98048807  0.22891135  0.18690006    -0.22880
C1633       C  0.21944843  0.75398335  0.70113730    -0.05720
C1634       C  0.25192033  0.76227540  0.69833772     0.00210
C1635       C  0.26512823  0.76589367  0.66719504    -0.08360
C1636       C  0.24515430  0.76009889  0.63971579    -0.05740
C1637       C  0.21270115  0.75129306  0.64268036     0.00200
C1638       C  0.19939879  0.74887946  0.67394508    -0.08270
C1639       C  0.16448787  0.74001847  0.67905296     0.62110
H1640       H  0.20990433  0.75124151  0.72519688     0.12800
H1641       H  0.25453891  0.76292856  0.61561830     0.12810
C1642       C  0.29952095  0.77701200  0.66300449     0.62340
F1643       F  0.15537157  0.74507637  0.71092621    -0.22830
F1644       F  0.16077889  0.70769683  0.67146821    -0.20150
F1645       F  0.14403524  0.75827416  0.65989893    -0.19830
F1646       F  0.32091631  0.75322842  0.67274756    -0.19880
F1647       F  0.30475161  0.80491786  0.68138627    -0.20210
F1648       F  0.30585273  0.78360501  0.63102869    -0.22880
C1649       C  0.22819799  0.83574715  0.79860861    -0.05720
C1650       C  0.25477659  0.81623910  0.80911756     0.00210
C1651       C  0.26813238  0.82428198  0.84081696    -0.08360
C1652       C  0.25575407  0.85154514  0.85768297    -0.05740
C1653       C  0.23489504  0.87390434  0.84345192     0.00200
C1654       C  0.21965158  0.86549379  0.81390376    -0.08270
C1655       C  0.19491715  0.88778598  0.79839199     0.62110
H1656       H  0.21399948  0.82831209  0.77778141     0.12800
H1657       H  0.26392952  0.85723849  0.88210689     0.12810
C1658       C  0.29533123  0.80616929  0.85826498     0.62340
F1659       F  0.18532193  0.87646565  0.76796842    -0.22830
F1660       F  0.20784028  0.91816544  0.79504298    -0.20150
F1661       F  0.16787335  0.89021681  0.81750852    -0.19830
F1662       F  0.32226467  0.80363896  0.83892675    -0.19880
F1663       F  0.28464294  0.77625852  0.86745127    -0.20210
F1664       F  0.30545772  0.82178393  0.88656964    -0.22880
C1665       C  0.39253538  0.72338493  0.78752567    -0.05720
C1666       C  0.38978381  0.69285565  0.80120476     0.00210
C1667       C  0.35871378  0.67962350  0.80538812    -0.08360
C1668       C  0.33136627  0.69749288  0.79519774    -0.05740
C1669       C  0.33442324  0.72735755  0.78032626     0.00200
C1670       C  0.36537567  0.74080934  0.77668480    -0.08270
C1671       C  0.36972546  0.77313678  0.76069267     0.62110
H1672       H  0.41648754  0.73278228  0.78402248     0.12800
H1673       H  0.30735009  0.68812614  0.79829820     0.12810
C1674       C  0.35446571  0.64642548  0.81947339     0.62340
F1675       F  0.40178727  0.78211008  0.76028814    -0.22830
F1676       F  0.35267206  0.79706796  0.77724829    -0.20150
F1677       F  0.35858216  0.77119826  0.72902585    -0.19830
F1678       F  0.36507051  0.64672181  0.85133860    -0.19880
F1679       F  0.37194387  0.62356112  0.80184355    -0.20210
F1680       F  0.32246727  0.63718973  0.81886489    -0.22880
C1681       C  0.67147621  0.28814622  0.77073760    -0.05720
C1682       C  0.69791888  0.26646951  0.77019640     0.00210
C1683       C  0.69329309  0.23413931  0.75935433    -0.08360
C1684       C  0.66175825  0.22387962  0.75198758    -0.05740
C1685       C  0.63506577  0.24499626  0.75454332     0.00200
C1686       C  0.63994242  0.27793378  0.76286833    -0.08270
C1687       C  0.61209501  0.30208932  0.76275025     0.62110
H1688       H  0.67568510  0.31308102  0.77807125     0.12800
H1689       H  0.65747939  0.19875094  0.74548000     0.12810
C1690       C  0.72149264  0.21072936  0.75516242     0.62340
F1691       F  0.62259538  0.33344542  0.76804488    -0.22830
F1692       F  0.59046800  0.29521692  0.78670206    -0.20150
F1693       F  0.59637200  0.30055906  0.73299598    -0.19830
F1694       F  0.73508231  0.20381117  0.78495120    -0.19880
F1695       F  0.74456044  0.22426865  0.73596047    -0.20210
F1696       F  0.71200953  0.18187197  0.74045343    -0.22880
C1697       C  0.77034156  0.27645126  0.88063271    -0.05720
C1698       C  0.78804997  0.27252177  0.85200880     0.00210
C1699       C  0.81792062  0.25542737  0.85310047    -0.08360
C1700       C  0.83069651  0.24604448  0.88341097    -0.05740
C1701       C  0.81393871  0.25201926  0.91231078     0.00200
C1702       C  0.78257717  0.26607066  0.91074451    -0.08270
C1703       C  0.76188756  0.26940264  0.94072500     0.62110
H1704       H  0.74683503  0.28809021  0.87922725     0.12800
H1705       H  0.85448554  0.23502064  0.88491813     0.12810
C1706       C  0.83585375  0.24655637  0.82232088     0.62340
F1707       F  0.73074995  0.27944795  0.93321524    -0.22830
F1708       F  0.77497926  0.29172803  0.96239438    -0.20150
F1709       F  0.76018152  0.23980443  0.95541387    -0.19830
F1710       F  0.84631292  0.27419844  0.80789929    -0.19880
F1711       F  0.81558780  0.22990788  0.80104958    -0.20210
F1712       F  0.86252810  0.22706613  0.82839177    -0.22880
C1713       C  0.75469934  0.37056053  0.74776256    -0.05720
C1714       C  0.78039336  0.35050890  0.75756166     0.00210
C1715       C  0.81180633  0.35753502  0.74628058    -0.08360
C1716       C  0.81627249  0.38585085  0.72810968    -0.05740
C1717       C  0.79000207  0.40484519  0.71711028     0.00200
C1718       C  0.75834594  0.39428549  0.72459065    -0.08270
C1719       C  0.72770166  0.40371464  0.70620711     0.62110
H1720       H  0.73048948  0.36524668  0.75556509     0.12800
H1721       H  0.84045016  0.39298550  0.72213202     0.12810
C1722       C  0.84029328  0.33496231  0.75193151     0.62340
F1723       F  0.70925411  0.37653814  0.69979288    -0.22830
F1724       F  0.73425219  0.41671185  0.67663860    -0.20150
F1725       F  0.70951628  0.42531128  0.72467601    -0.19830
F1726       F  0.83168791  0.30339559  0.74452291    -0.19880
F1727       F  0.85049391  0.33748282  0.78383431    -0.20210
F1728       F  0.86607013  0.34239260  0.73260207    -0.22880
C1729       C  0.72718658  0.22714916  0.17350774    -0.05720
C1730       C  0.69382571  0.23280174  0.17381399     0.00210
C1731       C  0.67951010  0.24679173  0.20184290    -0.08360
C1732       C  0.69951290  0.25685584  0.22773315    -0.05740
C1733       C  0.73330489  0.25383289  0.22658806     0.00200
C1734       C  0.74753223  0.23782544  0.19916796    -0.08270
C1735       C  0.78383079  0.23355071  0.19531777     0.62110
H1736       H  0.73745303  0.21640439  0.15173028     0.12800
H1737       H  0.68857106  0.26856489  0.24872492     0.12810
C1738       C  0.64356368  0.25356169  0.20480464     0.62340
F1739       F  0.79185516  0.22565221  0.16363329    -0.22830
F1740       F  0.79494819  0.20869396  0.21436278    -0.20150
F1741       F  0.79965064  0.26181090  0.20380937    -0.19830
F1742       F  0.62546631  0.23838152  0.18063710    -0.19880
F1743       F  0.63802196  0.28655144  0.20361953    -0.20210
F1744       F  0.63296585  0.24271228  0.23418337    -0.22880
C1745       C  0.82729034  0.22856974  0.31795797    -0.05720
C1746       C  0.82770658  0.25893322  0.30343246     0.00210
C1747       C  0.85773443  0.27229230  0.29475359    -0.08360
C1748       C  0.88614792  0.25443068  0.30070877    -0.05740
C1749       C  0.88552644  0.22339071  0.31346087     0.00200
C1750       C  0.85574910  0.21016643  0.32259100    -0.08270
C1751       C  0.85381819  0.17613328  0.33528807     0.62110
H1752       H  0.80414009  0.21862858  0.32397765     0.12800
H1753       H  0.90924075  0.26372555  0.29354891     0.12810
C1754       C  0.85998720  0.30406400  0.27711904     0.62340
F1755       F  0.82226525  0.16716740  0.34043905    -0.22830
F1756       F  0.87045139  0.17428878  0.36441095    -0.20150
F1757       F  0.86713022  0.15429649  0.31319702    -0.19830
F1758       F  0.85145545  0.32956857  0.29757660    -0.19880
F1759       F  0.83979872  0.30366955  0.25016335    -0.20210
F1760       F  0.89097804  0.30956893  0.26661855    -0.22880
C1761       C  0.77422219  0.37801522  0.28569914    -0.05720
C1762       C  0.75279322  0.35408034  0.29483507     0.00210
C1763       C  0.72552036  0.36284515  0.31349584    -0.08360
C1764       C  0.72211880  0.39516093  0.32469642    -0.05740
C1765       C  0.74446428  0.41899028  0.31686061     0.00200
C1766       C  0.76981821  0.41059875  0.29519566    -0.08270
C1767       C  0.79297718  0.43481722  0.28155332     0.62110
H1768       H  0.79464483  0.37112036  0.27079118     0.12800
H1769       H  0.70279691  0.40163724  0.34106969     0.12810
C1770       C  0.70083914  0.33792407  0.32251205     0.62340
F1771       F  0.79609554  0.42909986  0.24857687    -0.22830
F1772       F  0.82297091  0.43117283  0.29620709    -0.20150
F1773       F  0.78248171  0.46645924  0.28584575    -0.19830
F1774       F  0.71585998  0.31300884  0.33882615    -0.19880
F1775       F  0.68597725  0.32558132  0.29478069    -0.20210
F1776       F  0.67710557  0.35113119  0.34223155    -0.22880
C1777       C  0.31876554  0.27348285  0.18781833    -0.05720
C1778       C  0.32972912  0.27498616  0.22010071     0.00210
C1779       C  0.36218965  0.28293452  0.22745822    -0.08360
C1780       C  0.38332055  0.28694450  0.20181081    -0.05740
C1781       C  0.37268177  0.28410332  0.16961244     0.00200
C1782       C  0.33985740  0.27823682  0.16214836    -0.08270
C1783       C  0.32717752  0.27797338  0.12744909     0.62110
H1784       H  0.29352753  0.26852103  0.18296075     0.12800
H1785       H  0.40859370  0.29179761  0.20662698     0.12810
C1786       C  0.37430650  0.28812238  0.26204661     0.62340
F1787       F  0.29387762  0.27583530  0.12602723    -0.22830
F1788       F  0.33989378  0.25188021  0.11020785    -0.20150
F1789       F  0.33581720  0.30622676  0.11277487    -0.19830
F1790       F  0.37347494  0.25945214  0.27840903    -0.19880
F1791       F  0.35517190  0.31104914  0.27767171    -0.20210
F1792       F  0.40576760  0.29900811  0.26323097    -0.22880
C1793       C  0.27669371  0.18881791  0.31326892    -0.05720
C1794       C  0.29119154  0.21910798  0.31736237     0.00210
C1795       C  0.30437447  0.22873709  0.34781373    -0.08360
C1796       C  0.29953763  0.20907334  0.37409347    -0.05740
C1797       C  0.28321048  0.17974815  0.37075225     0.00200
C1798       C  0.27300419  0.16836147  0.33962869    -0.08270
C1799       C  0.25886677  0.13495763  0.33398893     0.62110
H1800       H  0.26695182  0.18199711  0.28962318     0.12800
H1801       H  0.30829967  0.21702603  0.39783663     0.12810
C1802       C  0.32308114  0.25961327  0.35442504     0.62340
F1803       F  0.25729860  0.12666110  0.30131488    -0.22830
F1804       F  0.22796239  0.13399828  0.34593809    -0.20150
F1805       F  0.27794072  0.11207122  0.34917551    -0.19830
F1806       F  0.30665609  0.27882127  0.37674017    -0.19880
F1807       F  0.32792693  0.27738276  0.32715485    -0.20210
F1808       F  0.35307892  0.25175688  0.36727172    -0.22880
C1809       C  0.20541002  0.31069840  0.27010763    -0.05720
C1810       C  0.23636271  0.31768821  0.28169198     0.00210
C1811       C  0.24271555  0.34719017  0.29838567    -0.08360
C1812       C  0.21795851  0.37051653  0.30031197    -0.05740
C1813       C  0.18738605  0.36427712  0.28691777     0.00200
C1814       C  0.18033259  0.33334642  0.27300650    -0.08270
C1815       C  0.14658260  0.32381164  0.26169097     0.62110
H1816       H  0.20118985  0.28738550  0.25834049     0.12800
H1817       H  0.22243252  0.39399850  0.31156520     0.12810
C1818       C  0.27523304  0.35352838  0.31437750     0.62340
F1819       F  0.14411558  0.29067553  0.25696618    -0.22830
F1820       F  0.13891976  0.33803950  0.23264245    -0.20150
F1821       F  0.12430351  0.33325667  0.28477219    -0.19830
F1822       F  0.29908289  0.35299540  0.29132285    -0.19880
F1823       F  0.28179645  0.32990294  0.33668078    -0.20210
F1824       F  0.27589203  0.38325050  0.33051029    -0.22880
C1825       C  0.73980491  0.69361816  0.22286727    -0.05720
C1826       C  0.76484354  0.69883200  0.24541894     0.00210
C1827       C  0.78485251  0.67267979  0.25476876    -0.08360
C1828       C  0.78005333  0.64214924  0.23978562    -0.05740
C1829       C  0.75605840  0.63713147  0.21582732     0.00200
C1830       C  0.73499597  0.66317883  0.20764686    -0.08270
C1831       C  0.70819245  0.65955340  0.18235082     0.62110
H1832       H  0.72445183  0.71399880  0.21674074     0.12800
H1833       H  0.79591265  0.62209396  0.24572586     0.12810
C1834       C  0.81131692  0.67720908  0.28018212     0.62340
F1835       F  0.69421985  0.68905659  0.17490873    -0.22830
F1836       F  0.68419688  0.64031096  0.19401480    -0.20150
F1837       F  0.72017428  0.64590223  0.15400133    -0.19830
F1838       F  0.79818058  0.68951255  0.30858625    -0.19880
F1839       F  0.83401896  0.69846919  0.26935220    -0.20210
F1840       F  0.82692136  0.64834330  0.28699611    -0.22880
C1841       C  0.85577271  0.79148024  0.24530857    -0.05720
C1842       C  0.82411597  0.80401031  0.24406261     0.00210
C1843       C  0.81912536  0.83686393  0.23588469    -0.08360
C1844       C  0.84596642  0.85709530  0.23427059    -0.05740
C1845       C  0.87744273  0.84511484  0.23839095     0.00200
C1846       C  0.88268567  0.81152891  0.24209529    -0.08270
C1847       C  0.91652631  0.79710150  0.24291892     0.62110
H1848       H  0.85938015  0.76623804  0.25085235     0.12800
H1849       H  0.84226658  0.88275002  0.23061180     0.12810
C1850       C  0.78616519  0.85183885  0.22920239     0.62340
F1851       F  0.91607424  0.76363800  0.24266373    -0.22830
F1852       F  0.93288017  0.80752615  0.27055328    -0.20150
F1853       F  0.93313195  0.80654675  0.21598611    -0.19830
F1854       F  0.77763018  0.87198919  0.25498458    -0.19880
F1855       F  0.76248999  0.82893500  0.22411500    -0.20210
F1856       F  0.78738698  0.86996607  0.20155483    -0.22880
C1857       C  0.74771501  0.79734831  0.34986212    -0.05720
C1858       C  0.73297917  0.79089697  0.31970632     0.00210
C1859       C  0.69983751  0.79845280  0.31499998    -0.08360
C1860       C  0.68183262  0.80961822  0.34179338    -0.05740
C1861       C  0.69622266  0.81381407  0.37252922     0.00200
C1862       C  0.72996145  0.80905355  0.37638653    -0.08270
C1863       C  0.74816631  0.81456126  0.40817788     0.62110
H1864       H  0.77333131  0.79244579  0.35292886     0.12800
H1865       H  0.65595984  0.81305740  0.33945287     0.12810
C1866       C  0.68357961  0.79448848  0.28200585     0.62340
F1867       F  0.75967914  0.78525433  0.41916471    -0.22830
F1868       F  0.72946212  0.82898911  0.43205143    -0.20150
F1869       F  0.77406275  0.83452681  0.40313633    -0.19830
F1870       F  0.68241248  0.76214214  0.27296489    -0.19880
F1871       F  0.70068534  0.81096474  0.25925509    -0.20210
F1872       F  0.65230284  0.80661292  0.28208020    -0.22880
C1873       C  0.26353506  0.85764894  0.22039475    -0.05720
C1874       C  0.28199043  0.82910325  0.21938358     0.00210
C1875       C  0.30526143  0.82420094  0.19504352    -0.08360
C1876       C  0.30770518  0.84730247  0.17091170    -0.05740
C1877       C  0.28897557  0.87592183  0.17137493     0.00200
C1878       C  0.26764556  0.88197889  0.19766484    -0.08270
C1879       C  0.24944728  0.91364194  0.20352370     0.62110
H1880       H  0.24637290  0.86132062  0.23976512     0.12800
H1881       H  0.32394550  0.84273412  0.15097253     0.12810
C1882       C  0.32725752  0.79456337  0.19455232     0.62340
F1883       F  0.25074505  0.92215777  0.23614322    -0.22830
F1884       F  0.21745909  0.90986233  0.19437085    -0.20150
F1885       F  0.26239413  0.93893627  0.18697002    -0.19830
F1886       F  0.30900844  0.76684444  0.19218508    -0.19880
F1887       F  0.34565554  0.79404436  0.22272653    -0.20210
F1888       F  0.34814175  0.79439976  0.16868227    -0.22880
C1889       C  0.19610008  0.73546438  0.25445212    -0.05720
C1890       C  0.22928158  0.72840883  0.25511472     0.00210
C1891       C  0.24026136  0.69602996  0.25031807    -0.08360
C1892       C  0.21728619  0.67137512  0.24778249    -0.05740
C1893       C  0.18421052  0.67835466  0.24907140     0.00200
C1894       C  0.17319009  0.71078991  0.25131820    -0.08270
C1895       C  0.13740338  0.71904187  0.25079495     0.62110
H1896       H  0.18830302  0.76044142  0.25733187     0.12800
H1897       H  0.22497103  0.64629307  0.24573146     0.12810
C1898       C  0.27589433  0.68743896  0.24742288     0.62340
F1899       F  0.13184934  0.75209254  0.25252726    -0.22830
F1900       F  0.12253540  0.70536811  0.27680549    -0.20150
F1901       F  0.12351255  0.70717622  0.22233765    -0.19830
F1902       F  0.29122724  0.69071096  0.27720499    -0.19880
F1903       F  0.29024126  0.70749860  0.22569304    -0.20210
F1904       F  0.28044751  0.65585529  0.23639789    -0.22880
C1905       C  0.34944040  0.76628565  0.31007451    -0.05720
C1906       C  0.31876710  0.77655745  0.32016182     0.00210
C1907       C  0.31299907  0.78319730  0.35333272    -0.08360
C1908       C  0.33863804  0.77916730  0.37561859    -0.05740
C1909       C  0.36945742  0.76916798  0.36542010     0.00200
C1910       C  0.37516408  0.76287291  0.33217933    -0.08270
C1911       C  0.40850376  0.75368161  0.32005699     0.62110
H1912       H  0.35312876  0.76140720  0.28448666     0.12800
H1913       H  0.33514652  0.78467438  0.40112200     0.12810
C1914       C  0.28039156  0.79562698  0.36477328     0.62340
F1915       F  0.40906572  0.75031353  0.28663255    -0.22830
F1916       F  0.41811724  0.72459757  0.33292500    -0.20150
F1917       F  0.43033101  0.77730481  0.32933526    -0.19830
F1918       F  0.25711333  0.77260485  0.35841350    -0.19880
F1919       F  0.27217582  0.82357853  0.34876314    -0.20210
F1920       F  0.28057682  0.80266117  0.39772907    -0.22880
C1921       C  0.81615067  0.78020099  0.69009306    -0.05720
C1922       C  0.78332371  0.77301605  0.68630794     0.00210
C1923       C  0.76777431  0.77759053  0.65592422    -0.08360
C1924       C  0.78589284  0.78966054  0.63049098    -0.05740
C1925       C  0.81917491  0.79506291  0.63377794     0.00200
C1926       C  0.83465673  0.79067827  0.66428723    -0.08270
C1927       C  0.87063935  0.79615940  0.66978544     0.62110
H1928       H  0.82730149  0.77728462  0.71373854     0.12800
H1929       H  0.77453201  0.79239594  0.60688342     0.12810
C1930       C  0.73299999  0.76859464  0.64832396     0.62340
F1931       F  0.88072109  0.78727432  0.70044013    -0.22830
F1932       F  0.87735426  0.82854291  0.66669880    -0.20150
F1933       F  0.88853175  0.77818342  0.64766372    -0.19830
F1934       F  0.71465470  0.79652579  0.64540726    -0.19880
F1935       F  0.71961323  0.74965185  0.67158528    -0.20210
F1936       F  0.73150717  0.75120657  0.61926905    -0.22880
C1937       C  0.74930152  0.68564537  0.79750941    -0.05720
C1938       C  0.77505892  0.70015903  0.78199057     0.00210
C1939       C  0.80690977  0.68817772  0.78804615    -0.08360
C1940       C  0.81083468  0.66074018  0.80761145    -0.05740
C1941       C  0.78495207  0.64839656  0.82505869     0.00200
C1942       C  0.75443864  0.66421064  0.82247983    -0.08270
C1943       C  0.73036826  0.66573913  0.84996080     0.62110
H1944       H  0.72485241  0.69413136  0.79295860     0.12800
H1945       H  0.83436439  0.64931893  0.80989048     0.12810
C1946       C  0.83680374  0.70415030  0.77531020     0.62340
F1947       F  0.71191804  0.69389216  0.84921637    -0.22830
F1948       F  0.74698796  0.66634753  0.87911239    -0.20150
F1949       F  0.70935198  0.64011402  0.84835105    -0.19830
F1950       F  0.83396945  0.73745129  0.77806427    -0.19880
F1951       F  0.84136778  0.69497270  0.74330255    -0.20210
F1952       F  0.86409869  0.69509850  0.79272284    -0.22880
C1953       C  0.66006537  0.83486232  0.77519993    -0.05720
C1954       C  0.63477222  0.81349039  0.78048052     0.00210
C1955       C  0.64101071  0.78010732  0.78232412    -0.08360
C1956       C  0.67257171  0.76879824  0.77662187    -0.05740
C1957       C  0.69774235  0.79006056  0.76947380     0.00200
C1958       C  0.69172180  0.82383272  0.77019044    -0.08270
C1959       C  0.71735187  0.84908586  0.76527096     0.62110
H1960       H  0.65479584  0.86057681  0.77437972     0.12800
H1961       H  0.67749241  0.74302185  0.77625487     0.12810
C1962       C  0.61426883  0.75686655  0.78975888     0.62340
F1963       F  0.71359195  0.87415290  0.78777631    -0.22830
F1964       F  0.71380586  0.86132984  0.73455525    -0.20150
F1965       F  0.74835134  0.83694907  0.76904701    -0.19830
F1966       F  0.59071765  0.75788160  0.76574703    -0.20440
F1967       F  0.60067393  0.76564724  0.81913692    -0.20210
F1968       F  0.62558743  0.72534872  0.79170067    -0.22880
loop_ 
_geom_bond_atom_site_label_1 
_geom_bond_atom_site_label_2 
_geom_bond_distance 
_geom_bond_site_symmetry_2 
_ccdc_geom_bond_type 
C1            C2   1.395       .  A
C1            C6   1.400       .  A
C1         C1957   1.481       .  S
C2            C3   1.409       .  A
C2            H7   1.084       .  S
C3            C4   1.404       .  A
C3         C1938   1.497       .  S
C4            C5   1.408       .  A
C4            H8   1.078       .  S
C5            C6   1.401       .  A
C5         C1922   1.478       .  S
C6            H9   1.083       .  S
C10          C11   1.400       .  A
C10          C15   1.403       .  A
C10        C1874   1.476       .  S
C11          C12   1.401       .  A
C11          H16   1.084       .  S
C12          C13   1.398       .  A
C12        C1906   1.474       .  S
C13          C14   1.401       .  A
C13          H17   1.083       .  S
C14          C15   1.404       .  A
C14        C1890   1.478       .  S
C15          H18   1.084       .  S
C19          C20   1.403       .  A
C19          C24   1.406       .  A
C19        C1826   1.481       .  S
C20          C21   1.403       .  A
C20          H25   1.084       .  S
C21          C22   1.399       .  A
C21        C1858   1.479       .  S
C22          C23   1.404       .  A
C22          H26   1.084       .  S
C23          C24   1.406       .  A
C23        C1842   1.487       .  S
C24          H27   1.084       .  S
C28          C29   1.399       .  A
C28          C33   1.403       .  A
C28        C1778   1.467       .  S
C29          C30   1.395       .  A
C29          H34   1.084       .  S
C30          C31   1.390       .  A
C30        C1810   1.459       .  S
C31          C32   1.395       .  A
C31          H35   1.085       .  S
C32          C33   1.399       .  A
C32        C1794   1.460       .  S
C33          H36   1.083       .  S
C37          C38   1.403       .  A
C37          C42   1.403       .  A
C37        C1762   1.484       .  S
C38          C39   1.402       .  A
C38          H43   1.082       .  S
C39          C40   1.405       .  A
C39        C1746   1.487       .  S
C40          C41   1.404       .  A
C40          H44   1.077       .  S
C41          C42   1.411       .  A
C41        C1733   1.496       .  S
C42          H45   1.084       .  S
C46          C47   1.418       .  A
C46          C51   1.405       .  A
C46        C1698   1.497       .  S
C47          C48   1.417       .  A
C47          H52   1.079       .  S
C48          C49   1.410       .  A
C48        C1714   1.509       .  S
C49          C50   1.397       .  A
C49          H53   1.084       .  S
C50          C51   1.401       .  A
C50        C1682   1.485       .  S
C51          H54   1.083       .  S
C55          C56   1.397       .  A
C55          C60   1.408       .  A
C55        C1634   1.484       .  S
C56          C57   1.394       .  A
C56          H61   1.082       .  S
C57          C58   1.398       .  A
C57        C1669   1.480       .  S
C58          C59   1.414       .  A
C58          H62   1.057       .  S
C59          C60   1.424       .  A
C59        C1650   1.540       .  S
C60          H63   1.077       .  S
Zr64         O65   2.436       .  S
Zr64         O66   2.471       .  S
Zr64         O67   2.487       .  S
Zr64         O70   2.491       .  S
Zr64         O72   2.390   1_655  S
Zr64         O73   2.389   1_655  S
Zr64         O74   2.427   1_655  S
Zr64         O75   2.414   1_655  S
O65         H121   0.989       .  S
O65         H129   0.990       .  S
O66          C86   1.291       .  A
O67          C88   1.292   1_545  A
O68         Zr78   2.421   1_655  S
O68          C87   1.282       .  A
O69         Zr77   2.406   1_565  S
O69          C88   1.281   1_455  A
O70          C87   1.296       .  A
O71         Zr79   2.397       .  S
O71          C86   1.276   1_455  A
O72         Zr77   2.395       .  S
O72         Zr79   2.377       .  S
O73         Zr78   2.395       .  S
O73         Zr79   2.386       .  S
O73         H108   0.966       .  S
O74         Zr77   2.403       .  S
O74         Zr94   2.413       .  S
O74         H111   0.966       .  S
O75         Zr78   2.386       .  S
O75         Zr94   2.405       .  S
Zr76        O101   2.438       .  S
Zr76         O95   2.418   1_554  S
Zr76        O103   2.454       .  S
Zr76         O91   2.416       .  S
Zr76         O82   2.388       .  S
Zr76         O83   2.399       .  S
Zr76         O84   2.373       .  S
Zr76         O85   2.377       .  S
Zr77         O96   2.438   1_545  S
Zr77         O89   2.436       .  S
Zr77         O90   2.442   1_545  S
Zr77         O83   2.391       .  S
Zr77         O84   2.371       .  S
Zr78         O80   2.434   1_554  S
Zr78        O102   2.438       .  S
Zr78        O104   2.426       .  S
Zr78         O82   2.379       .  S
Zr78         O85   2.383       .  S
Zr79        O105   2.436       .  S
Zr79        O106   2.437       .  S
Zr79         O81   2.437       .  S
Zr79         O82   2.380       .  S
Zr79         O83   2.395       .  S
O80         H117   0.990       .  S
O81         H112   0.990       .  S
O81         H126   0.989       .  S
O83         H109   0.966       .  S
O84         Zr94   2.356       .  S
O85         Zr94   2.384       .  S
O85         H110   0.965   1_554  S
C86        C1621   1.477       .  S
C87        C1573   1.508       .  S
C88        C1602   1.517       .  S
O89         H125   0.990       .  S
O90          C92   1.285       .  A
O91          C92   1.283   1_545  A
C92        C1554   1.495       .  S
O93         Zr94   2.440   1_656  S
O93         H122   0.990   1_545  S
Zr94         O97   2.437   1_545  S
Zr94         O98   2.441   1_554  S
Zr94         O99   2.461   1_554  S
O95         C100   1.282       .  A
O96         H113   0.990       .  S
O96         H128   0.990       .  S
O97         H114   0.990   1_554  S
O98         H118   0.990       .  S
O98         H127   0.989       .  S
O99         C100   1.290       .  A
C100       C1538   1.495       .  S
O101        H120   0.989       .  S
O101        H124   0.989       .  S
O102        H116   0.990       .  S
O102        H123   0.990       .  S
O103        C107   1.288       .  A
O104        C107   1.286       .  A
O105        H115   0.990       .  S
O106        H119   0.990       .  S
C107       C1589   1.505   1_554  S
C130        C131   1.408       .  A
C130        C135   1.398       .  A
C130       C1506   1.480       .  S
C131        C132   1.417       .  A
C131        H136   1.079       .  S
C132        C133   1.418       .  A
C132       C1522   1.520   1_556  S
C133        C134   1.402       .  A
C133        H137   1.080   1_556  S
C134        C135   1.394       .  A
C134       C1586   1.483       .  S
C135        H138   1.084       .  S
C139        C140   1.409       .  A
C139        C144   1.412       .  A
C139       C1490   1.497       .  S
C140        C141   1.408       .  A
C140        H145   1.079       .  S
C141        C142   1.403       .  A
C141       C1749   1.482       .  S
C142        C143   1.396       .  A
C142        H146   1.083       .  S
C143        C144   1.402       .  A
C143       C1618   1.489       .  S
C144        H147   1.085       .  S
C148        C149   1.399       .  A
C148        C153   1.402       .  A
C148       C1474   1.482       .  S
C149        C150   1.407       .  A
C149        H154   1.083       .  S
C150        C151   1.408       .  A
C150       C1877   1.493       .  S
C151        C152   1.411       .  A
C151        H155   1.080       .  S
C152        C153   1.403       .  A
C152       C1557   1.506       .  S
C153        H156   1.074       .  S
Zr157       O158   2.444       .  S
Zr157       O159   2.466       .  S
Zr157       O160   2.435       .  S
Zr157       O163   2.435       .  S
Zr157       O165   2.382       .  S
Zr157       O166   2.386       .  S
Zr157       O167   2.421       .  S
Zr157       O168   2.406       .  S
O158        H214   0.990       .  S
O158        H222   0.991       .  S
O159        C179   1.289       .  A
O160        C181   1.283       .  A
O161       Zr171   2.421   1_655  S
O161        C180   1.281       .  A
O162       Zr170   2.456       .  S
O162        C181   1.286       .  A
O163        C180   1.283       .  A
O164       Zr172   2.427       .  S
O164        C179   1.280       .  A
O165       Zr170   2.390       .  S
O165       Zr172   2.388       .  S
O166       Zr171   2.395   1_655  S
O166       Zr172   2.386       .  S
O166        H201   0.966       .  S
O167       Zr170   2.402       .  S
O167       Zr187   2.391       .  S
O167        H204   0.963       .  S
O168       Zr171   2.382   1_655  S
O168       Zr187   2.389       .  S
Zr169       O194   2.437       .  S
Zr169       O188   2.431       .  S
Zr169       O196   2.450       .  S
Zr169       O184   2.430       .  S
Zr169       O175   2.404       .  S
Zr169       O176   2.416       .  S
Zr169       O177   2.380       .  S
Zr169       O178   2.378       .  S
Zr170       O189   2.432       .  S
Zr170       O182   2.433       .  S
Zr170       O183   2.422   1_655  S
Zr170       O176   2.401   1_655  S
Zr170       O177   2.393   1_655  S
Zr171       O173   2.437       .  S
Zr171       O195   2.436       .  S
Zr171       O197   2.420       .  S
Zr171       O175   2.388       .  S
Zr171       O178   2.390       .  S
Zr172       O198   2.435   1_655  S
Zr172       O199   2.436   1_655  S
Zr172       O174   2.437       .  S
Zr172       O175   2.404   1_655  S
Zr172       O176   2.405   1_655  S
O173        H210   0.990       .  S
O174        H205   0.990       .  S
O174        H219   0.990       .  S
O176        H202   0.966       .  S
O177       Zr187   2.360   1_455  S
O178       Zr187   2.368   1_455  S
O178        H203   0.965       .  S
C179       C1442   1.502       .  S
C180       C1397   1.464       .  S
C181       C1458   1.486       .  S
O182        H218   0.990       .  S
O183        C185   1.281       .  A
O184        C185   1.285       .  A
C185       C1413   1.465       .  S
O186       Zr187   2.439       .  S
O186        H215   0.990       .  S
Zr187       O190   2.438       .  S
Zr187       O191   2.440       .  S
Zr187       O192   2.434   1_655  S
O188        C193   1.285       .  A
O189        H206   0.990       .  S
O189        H221   0.989       .  S
O190        H207   0.990       .  S
O191        H211   0.989       .  S
O191        H220   0.989   1_655  S
O192        C193   1.283       .  A
C193       C1426   1.494       .  S
O194        H213   0.990       .  S
O194        H217   0.990       .  S
O195        H209   0.990       .  S
O195        H216   0.990   1_455  S
O196        C200   1.287       .  A
O197        C200   1.282       .  A
O198        H208   0.990       .  S
O199        H212   0.989       .  S
C200       C1378   1.481       .  S
C223        C224   1.410       .  A
C223        C228   1.404       .  A
C223       C1365   1.482       .  S
C224        C225   1.411       .  A
C224        H229   1.083       .  S
C225        C226   1.403       .  A
C225       C1765   1.494       .  S
C226        C227   1.399       .  A
C226        H230   1.083       .  S
C227        C228   1.399       .  A
C227       C1461   1.482       .  S
C228        H231   1.082       .  S
C232        C233   1.407       .  A
C232        C237   1.411       .  A
C232       C1349   1.495       .  S
C233        C234   1.400       .  A
C233        H238   1.084       .  S
C234        C235   1.398       .  A
C234       C1893   1.472       .  S
C235        C236   1.397       .  A
C235        H239   1.085       .  S
C236        C237   1.404       .  A
C236       C1429   1.479       .  S
C237        H240   1.080       .  S
C241        C242   1.405       .  A
C241        C246   1.407       .  A
C241       C1330   1.491       .  S
C242        C243   1.402       .  A
C242        H247   1.082       .  S
C243        C244   1.400       .  A
C243       C1925   1.479       .  S
C244        C245   1.395       .  A
C244        H248   1.073       .  S
C245        C246   1.411       .  A
C245       C1394   1.503       .  S
C246        H249   1.081       .  S
Zr250       O251   2.438       .  S
Zr250       O252   2.440   1_455  S
Zr250       O253   2.447       .  S
Zr250       O256   2.479       .  S
Zr250       O258   2.393       .  S
Zr250       O259   2.385   1_455  S
Zr250       O260   2.420       .  S
Zr250       O261   2.396       .  S
O251        H307   0.989       .  S
O251        H315   0.990       .  S
O252        C272   1.286       .  A
O253        C274   1.285       .  A
O254       Zr264   2.398   1_665  S
O254        C273   1.274       .  A
O255       Zr263   2.448       .  S
O255        C274   1.288       .  A
O256        C273   1.288   1_455  A
O257       Zr265   2.429       .  S
O257        C272   1.282       .  A
O258       Zr263   2.393       .  S
O258       Zr265   2.379   1_455  S
O259       Zr264   2.386   1_665  S
O259       Zr265   2.367       .  S
O259        H294   0.966       .  S
O260       Zr263   2.406       .  S
O260       Zr280   2.396       .  S
O260        H297   0.965       .  S
O261       Zr264   2.379   1_565  S
O261       Zr280   2.396       .  S
Zr262       O287   2.436       .  S
Zr262       O281   2.418       .  S
Zr262       O289   2.485       .  S
Zr262       O277   2.432       .  S
Zr262       O268   2.399       .  S
Zr262       O269   2.419       .  S
Zr262       O270   2.385       .  S
Zr262       O271   2.376       .  S
Zr263       O282   2.438       .  S
Zr263       O275   2.435       .  S
Zr263       O276   2.452   1_565  S
Zr263       O269   2.402   1_565  S
Zr263       O270   2.378   1_565  S
Zr264       O266   2.437   1_545  S
Zr264       O288   2.437   1_455  S
Zr264       O290   2.405   1_455  S
Zr264       O268   2.386       .  S
Zr264       O271   2.381       .  S
Zr265       O291   2.436   1_565  S
Zr265       O292   2.436   1_565  S
Zr265       O267   2.437   1_655  S
Zr265       O268   2.401   1_665  S
Zr265       O269   2.394   1_665  S
O266        H303   0.989   1_455  S
O267        H298   0.990   1_455  S
O267        H312   0.990       .  S
O269        H295   0.966       .  S
O270       Zr280   2.359   1_545  S
O271       Zr280   2.371   1_545  S
O271        H296   0.964       .  S
C272       C1333   1.488       .  S
C273       C1269   1.508       .  S
C274       C1282   1.494       .  S
O275        H311   0.990       .  S
O276        C278   1.288       .  A
O277        C278   1.287       .  A
C278       C1298   1.498       .  S
O279       Zr280   2.442       .  S
O279        H308   0.990       .  S
Zr280       O283   2.438       .  S
Zr280       O284   2.442   1_565  S
Zr280       O285   2.441   1_565  S
O281        C286   1.282       .  A
O282        H299   0.990       .  S
O282        H314   0.990       .  S
O283        H300   0.990       .  S
O284        H304   0.990       .  S
O284        H313   0.990       .  S
O285        C286   1.286       .  A
C286       C1314   1.483       .  S
O287        H306   0.990       .  S
O287        H310   0.990       .  S
O288        H302   0.990       .  S
O288        H309   0.990       .  S
O289        C293   1.294       .  A
O290        C293   1.280   1_655  A
O291        H301   0.990       .  S
O292        H305   0.990       .  S
C293       C1493   1.496       .  S
C316        C317   1.412       .  A
C316        C321   1.411       .  A
C316       C1381   1.504       .  S
C317        C318   1.408       .  A
C317        H322   1.080       .  S
C318        C319   1.400       .  A
C318       C1637   1.484       .  S
C319        C320   1.400       .  A
C319        H323   1.081       .  S
C320        C321   1.410       .  A
C320       C1285   1.495       .  S
C321        H324   1.084       .  S
C325        C326   1.393       .  A
C325        C330   1.401       .  A
C325       C1253   1.471       .  S
C326        C327   1.398       .  A
C326        H331   1.084       .  S
C327        C328   1.401       .  A
C327       C1797   1.471       .  S
C328        C329   1.404       .  A
C328        H332   1.080       .  S
C329        C330   1.405       .  A
C329       C1317   1.486       .  S
C330        H333   1.085       .  S
C334        C335   1.408       .  A
C334        C339   1.407       .  A
C334       C1605   1.488       .  S
C335        C336   1.407       .  A
C335        H340   1.083       .  S
C336        C337   1.401       .  A
C336       C1845   1.479       .  S
C337        C338   1.396       .  A
C337        H341   1.085       .  S
C338        C339   1.403       .  A
C338       C1266   1.481       .  S
C339        H342   1.084       .  S
Zr343       O344   2.443       .  S
Zr343       O345   2.441       .  S
Zr343       O346   2.427       .  S
Zr343       O349   2.438       .  S
Zr343       O351   2.380       .  S
Zr343       O352   2.387       .  S
Zr343       O353   2.410       .  S
Zr343       O354   2.394       .  S
O344        H400   0.990       .  S
O344        H408   0.991       .  S
O345        C365   1.284       .  A
O346        C367   1.282       .  A
O347       Zr357   2.409   1_556  S
O347        C366   1.282       .  A
O348       Zr356   2.434       .  S
O348        C367   1.283       .  A
O349        C366   1.283       .  A
O350       Zr358   2.419   1_556  S
O350        C365   1.279       .  A
O351       Zr356   2.394       .  S
O351       Zr358   2.382   1_556  S
O352       Zr357   2.395   1_556  S
O352       Zr358   2.382   1_556  S
O352        H387   0.966       .  S
O353       Zr356   2.401       .  S
O353       Zr373   2.388       .  S
O353        H390   0.965       .  S
O354       Zr357   2.381   1_556  S
O354       Zr373   2.374       .  S
Zr355       O380   2.443       .  S
Zr355       O374   2.437       .  S
Zr355       O382   2.434       .  S
Zr355       O370   2.411       .  S
Zr355       O361   2.399       .  S
Zr355       O362   2.407       .  S
Zr355       O363   2.376       .  S
Zr355       O364   2.379       .  S
Zr356       O375   2.433       .  S
Zr356       O368   2.435       .  S
Zr356       O369   2.426   1_556  S
Zr356       O362   2.398   1_556  S
Zr356       O363   2.381   1_556  S
Zr357       O359   2.436       .  S
Zr357       O381   2.437       .  S
Zr357       O383   2.424       .  S
Zr357       O361   2.381       .  S
Zr357       O364   2.387       .  S
Zr358       O384   2.436       .  S
Zr358       O385   2.435       .  S
Zr358       O360   2.436       .  S
Zr358       O361   2.397       .  S
Zr358       O362   2.397       .  S
O359        H396   0.990       .  S
O360        H391   0.990       .  S
O360        H405   0.989   1_554  S
O362        H388   0.966       .  S
O363       Zr373   2.368   1_554  S
O364       Zr373   2.381   1_554  S
O364        H389   0.966       .  S
C365       C1218   1.473       .  S
C366       C1170   1.465       .  S
C367       C1234   1.473       .  S
O368        H404   0.990       .  S
O369        C371   1.283       .  A
O370        C371   1.281       .  A
C371       C1186   1.476       .  S
O372       Zr373   2.440       .  S
O372        H401   0.990       .  S
Zr373       O376   2.438       .  S
Zr373       O377   2.439       .  S
Zr373       O378   2.407   1_556  S
O374        C379   1.285       .  A
O375        H392   0.990       .  S
O375        H407   0.989       .  S
O376        H393   0.990       .  S
O377        H397   0.990       .  S
O377        H406   0.989   1_556  S
O378        C379   1.279       .  A
C379       C1202   1.466       .  S
O380        H399   0.990       .  S
O380        H403   0.990       .  S
O381        H395   0.990       .  S
O381        H402   0.990   1_554  S
O382        C386   1.284       .  A
O383        C386   1.283       .  A
O384        H394   0.990       .  S
O385        H398   0.990       .  S
C386       C1154   1.471       .  S
C409        C410   1.400       .  A
C409        C414   1.411       .  A
C409       C1138   1.479       .  S
C410        C411   1.396       .  A
C410        H415   1.083       .  S
C411        C412   1.397       .  A
C411       C1237   1.475       .  S
C412        C413   1.399       .  A
C412        H416   1.085       .  S
C413        C414   1.410       .  A
C413       C1122   1.480       .  S
C414        H417   1.083       .  S
C418        C419   1.410       .  A
C418        C423   1.406       .  A
C418       C1106   1.483       .  S
C419        C420   1.407       .  A
C419        H424   1.083       .  S
C420        C421   1.397       .  A
C420       C1730   1.478       .  S
C421        C422   1.396       .  A
C421        H425   1.085       .  S
C422        C423   1.402       .  A
C422       C1205   1.481       .  S
C423        H426   1.081       .  S
C427        C428   1.416       .  A
C427        C432   1.406       .  A
C427       C1090   1.494       .  S
C428        C429   1.418       .  A
C428        H433   1.080       .  S
C429        C430   1.405       .  A
C429       C1941   1.499       .  S
C430        C431   1.392       .  A
C430        H434   1.078       .  S
C431        C432   1.387       .  A
C431       C1173   1.473       .  S
C432        H435   1.085       .  S
Zr436       O437   2.443       .  S
Zr436       O438   2.434   1_554  S
Zr436       O439   2.460       .  S
Zr436       O442   2.467       .  S
Zr436       O444   2.389       .  S
Zr436       O445   2.396   1_554  S
Zr436       O446   2.408       .  S
Zr436       O447   2.395       .  S
O437        H493   0.988       .  S
O437        H501   0.991       .  S
O438        C458   1.283       .  A
O439        C460   1.288       .  A
O440       Zr450   2.425   1_655  S
O440        C459   1.280       .  A
O441       Zr449   2.416       .  S
O441        C460   1.279       .  A
O442        C459   1.291       .  A
O443       Zr451   2.434       .  S
O443        C458   1.284       .  A
O444       Zr449   2.389       .  S
O444       Zr451   2.378   1_554  S
O445       Zr450   2.391   1_656  S
O445       Zr451   2.384       .  S
O445        H480   0.966       .  S
O446       Zr449   2.404       .  S
O446       Zr466   2.372       .  S
O446        H483   0.965       .  S
O447       Zr450   2.392   1_655  S
O447       Zr466   2.375       .  S
Zr448       O473   2.435       .  S
Zr448       O467   2.437       .  S
Zr448       O475   2.453       .  S
Zr448       O463   2.438       .  S
Zr448       O454   2.412       .  S
Zr448       O455   2.417       .  S
Zr448       O456   2.378       .  S
Zr448       O457   2.381       .  S
Zr449       O468   2.440       .  S
Zr449       O461   2.435       .  S
Zr449       O462   2.422   1_655  S
Zr449       O455   2.393   1_655  S
Zr449       O456   2.379   1_655  S
Zr450       O452   2.435   1_554  S
Zr450       O474   2.437   1_554  S
Zr450       O476   2.434       .  S
Zr450       O454   2.378       .  S
Zr450       O457   2.389       .  S
Zr451       O477   2.436   1_655  S
Zr451       O478   2.435   1_655  S
Zr451       O453   2.436       .  S
Zr451       O454   2.411   1_656  S
Zr451       O455   2.409   1_656  S
O452        H489   0.990       .  S
O453        H484   0.990       .  S
O453        H498   0.990       .  S
O455        H481   0.966       .  S
O456       Zr466   2.367   1_455  S
O457       Zr466   2.371   1_455  S
O457        H482   0.963       .  S
C458       C1093   1.492       .  S
C459       C1042   1.507       .  S
C460       C1061   1.470       .  S
O461        H497   0.990       .  S
O462        C464   1.284       .  A
O463        C464   1.285       .  A
C464       C1346   1.492       .  S
O465       Zr466   2.439       .  S
O465        H494   0.990       .  S
Zr466       O469   2.438       .  S
Zr466       O470   2.441       .  S
Zr466       O471   2.391   1_655  S
O467        C472   1.283       .  A
O468        H485   0.990       .  S
O468        H500   0.990       .  S
O469        H486   0.990       .  S
O470        H490   0.990   1_655  S
O470        H499   0.989   1_655  S
O471        C472   1.278       .  A
C472       C1074   1.485       .  S
O473        H492   0.990       .  S
O473        H496   0.990       .  S
O474        H488   0.990       .  S
O474        H495   0.990       .  S
O475        C479   1.287       .  A
O476        C479   1.283       .  A
O477        H487   0.990   1_455  S
O478        H491   0.990       .  S
C479       C1525   1.484       .  S
C502        C503   1.411       .  A
C502        C507   1.405       .  A
C502       C1157   1.492       .  S
C503        C504   1.409       .  A
C503        H508   1.081       .  S
C504        C505   1.406       .  A
C504       C1829   1.490       .  S
C505        C506   1.398       .  A
C505        H509   1.084       .  S
C506        C507   1.397       .  A
C506       C1058   1.476       .  S
C507        H510   1.083       .  S
C511        C512   1.409       .  A
C511        C516   1.412       .  A
C511       C1410   1.496       .  S
C512        C513   1.404       .  A
C512        H517   1.076       .  S
C513        C514   1.390       .  A
C513       C1813   1.466       .  S
C514        C515   1.384       .  A
C514        H518   1.085       .  S
C515        C516   1.394       .  A
C515       C1077   1.459       .  S
C516        H519   1.084       .  S
C520        C521   1.420       .  A
C520        C525   1.404       .  A
C520       C1570   1.500       .  S
C521        C522   1.418       .  A
C521        H526   1.083       .  S
C522        C523   1.401       .  A
C522       C1701   1.494       .  S
C523        C524   1.397       .  A
C523        H527   1.084       .  S
C524        C525   1.404       .  A
C524       C1045   1.485       .  S
C525        H528   1.084   1_556  S
Zr529       O530   2.442       .  S
Zr529       O531   2.432   1_556  S
Zr529       O532   2.424   1_556  S
Zr529       O535   2.450       .  S
Zr529       O537   2.385   1_556  S
Zr529       O538   2.380       .  S
Zr529       O539   2.410       .  S
Zr529       O540   2.391       .  S
O530        H586   0.990       .  S
O530        H594   0.991       .  S
O531        C551   1.282       .  A
O532        C553   1.283       .  A
O533       Zr543   2.420       .  S
O533        C552   1.281       .  A
O534       Zr542   2.413       .  S
O534        C553   1.278       .  A
O535        C552   1.287       .  A
O536       Zr544   2.441       .  S
O536        C551   1.284       .  A
O537       Zr542   2.396       .  S
O537       Zr544   2.373       .  S
O538       Zr543   2.394       .  S
O538       Zr544   2.383   1_556  S
O538        H573   0.966       .  S
O539       Zr542   2.404   1_556  S
O539       Zr559   2.383       .  S
O539        H576   0.965       .  S
O540       Zr543   2.377       .  S
O540       Zr559   2.375       .  S
Zr541       O566   2.444       .  S
Zr541       O560   2.460       .  S
Zr541       O568   2.444       .  S
Zr541       O556   2.435   1_556  S
Zr541       O547   2.406   1_565  S
Zr541       O548   2.412   1_566  S
Zr541       O549   2.372   1_565  S
Zr541       O550   2.386   1_565  S
Zr542       O561   2.438       .  S
Zr542       O554   2.434       .  S
Zr542       O555   2.432       .  S
Zr542       O548   2.390       .  S
Zr542       O549   2.374   1_554  S
Zr543       O545   2.435       .  S
Zr543       O567   2.438       .  S
Zr543       O569   2.407   1_545  S
Zr543       O547   2.383       .  S
Zr543       O550   2.391       .  S
Zr544       O570   2.436   1_554  S
Zr544       O571   2.435   1_545  S
Zr544       O546   2.436       .  S
Zr544       O547   2.399   1_554  S
Zr544       O548   2.411       .  S
O545        H582   0.990       .  S
O546        H577   0.990       .  S
O546        H591   0.989       .  S
O548        H574   0.966   1_545  S
O549       Zr559   2.371       .  S
O550       Zr559   2.388       .  S
O550        H575   0.966       .  S
C551       C1109   1.480       .  S
C552       C1010   1.473       .  S
C553       C1029   1.472       .  S
O554        H590   0.990       .  S
O555        C557   1.286   1_545  A
O556        C557   1.282       .  A
C557       C1477   1.504       .  S
O558       Zr559   2.441       .  S
O558        H587   0.990       .  S
Zr559       O562   2.438       .  S
Zr559       O563   2.442       .  S
Zr559       O564   2.396       .  S
O560        C565   1.291       .  A
O561        H578   0.990       .  S
O561        H593   0.990       .  S
O562        H579   0.989       .  S
O563        H583   0.990       .  S
O563        H592   0.989       .  S
O564        C565   1.278   1_545  A
C565        C981   1.483       .  S
O566        H585   0.990       .  S
O566        H589   0.990   1_556  S
O567        H581   0.990       .  S
O567        H588   0.990       .  S
O568        C572   1.285       .  A
O569        C572   1.281       .  A
O570        H580   0.990   1_556  S
O571        H584   0.990       .  S
C572        C997   1.494       .  S
C595        C596   1.402       .  A
C595        C600   1.403       .  A
C595        C962   1.485       .  S
C596        C597   1.404       .  A
C596        H601   1.083       .  S
C597        C598   1.402       .  A
C597       C1685   1.482       .  S
C598        C599   1.403       .  A
C598        H602   1.070       .  S
C599        C600   1.414       .  A
C599       C1013   1.511       .  S
C600        H603   1.083       .  S
C604        C605   1.398       .  A
C604        C609   1.398       .  A
C604       C1189   1.465       .  S
C605        C606   1.400       .  A
C605        H610   1.084       .  S
C606        C607   1.396       .  A
C606       C1781   1.463       .  S
C607        C608   1.395       .  A
C607        H611   1.084       .  S
C608        C609   1.395       .  A
C608       C1026   1.469       .  S
C609        H612   1.082       .  S
C613        C614   1.408       .  A
C613        C618   1.412       .  A
C613       C1541   1.506       .  S
C614        C615   1.404       .  A
C614        H619   1.073       .  S
C615        C616   1.406       .  A
C615       C1653   1.490       .  S
C616        C617   1.402       .  A
C616        H620   1.069       .  S
C617        C618   1.419       .  A
C617        C978   1.526       .  S
C618        H621   1.081       .  S
Zr622       O623   2.442       .  S
Zr622       O624   2.444       .  S
Zr622       O625   2.433       .  S
Zr622       O628   2.454       .  S
Zr622       O630   2.384       .  S
Zr622       O631   2.379       .  S
Zr622       O632   2.409       .  S
Zr622       O633   2.398       .  S
O623        H679   0.990       .  S
O623        H687   0.991       .  S
O624        C644   1.285       .  A
O625        C646   1.282       .  A
O626       Zr636   2.407       .  S
O626        C645   1.279       .  A
O627       Zr635   2.420       .  S
O627        C646   1.280       .  A
O628        C645   1.287       .  A
O629       Zr637   2.418       .  S
O629        C644   1.279       .  A
O630       Zr635   2.388       .  S
O630       Zr637   2.379       .  S
O631       Zr636   2.394       .  S
O631       Zr637   2.382       .  S
O631        H666   0.965       .  S
O632       Zr635   2.400       .  S
O632       Zr652   2.392       .  S
O632        H669   0.965       .  S
O633       Zr636   2.380       .  S
O633       Zr652   2.384       .  S
Zr634       O659   2.443       .  S
Zr634       O653   2.438       .  S
Zr634       O661   2.470       .  S
Zr634       O649   2.451       .  S
Zr634       O640   2.404       .  S
Zr634       O641   2.411       .  S
Zr634       O642   2.382       .  S
Zr634       O643   2.385       .  S
Zr635       O654   2.437       .  S
Zr635       O647   2.434       .  S
Zr635       O648   2.421       .  S
Zr635       O641   2.396       .  S
Zr635       O642   2.383       .  S
Zr636       O638   2.434       .  S
Zr636       O660   2.444       .  S
Zr636       O662   2.408       .  S
Zr636       O640   2.385       .  S
Zr636       O643   2.389       .  S
Zr637       O663   2.435       .  S
Zr637       O664   2.435       .  S
Zr637       O639   2.437       .  S
Zr637       O640   2.393       .  S
Zr637       O641   2.401       .  S
O638        H675   0.990       .  S
O639        H670   0.990       .  S
O639        H684   0.990       .  S
O641        H667   0.966       .  S
O642       Zr652   2.370       .  S
O643       Zr652   2.381       .  S
O643        H668   0.966       .  S
C644       C1141   1.473       .  S
C645        C946   1.484       .  S
C646        C898   1.470       .  S
O647        H683   0.990       .  S
O648        C650   1.280       .  A
O649        C650   1.289       .  A
C650        C914   1.503       .  S
O651       Zr652   2.440       .  S
O651        H680   0.990       .  S
Zr652       O655   2.438       .  S
Zr652       O656   2.441       .  S
Zr652       O657   2.410       .  S
O653        C658   1.285       .  A
O654        H671   0.990       .  S
O654        H686   0.990       .  S
O655        H672   0.990       .  S
O656        H676   0.990       .  S
O656        H685   0.989       .  S
O657        C658   1.279       .  A
C658        C933   1.470       .  S
O659        H678   0.990       .  S
O659        H682   0.990       .  S
O660        H674   0.988       .  S
O660        H681   0.988       .  S
O661        C665   1.291       .  A
O662        C665   1.279       .  A
O663        H673   0.990       .  S
O664        H677   0.990       .  S
C665       C1362   1.498       .  S
C688        C689   1.411       .  A
C688        C693   1.408       .  A
C688        C882   1.494       .  S
C689        C690   1.408       .  A
C689        H694   1.083       .  S
C690        C691   1.397       .  A
C690       C1861   1.472       .  S
C691        C692   1.391       .  A
C691        H695   1.083       .  S
C692        C693   1.401       .  A
C692        C930   1.479       .  S
C693        H696   1.082       .  S
C697        C698   1.408       .  A
C697        C702   1.402       .  A
C697       C1221   1.477       .  S
C698        C699   1.409       .  A
C698        H703   1.082       .  S
C699        C700   1.401       .  A
C699       C1666   1.484       .  S
C700        C701   1.397       .  A
C700        H704   1.085       .  S
C701        C702   1.397       .  A
C701        C901   1.477       .  S
C702        H705   1.083       .  S
C706        C707   1.420       .  A
C706        C711   1.401       .  A
C706       C1445   1.496       .  S
C707        C708   1.424       .  A
C707        H712   1.082       .  S
C708        C709   1.409       .  A
C708       C1717   1.516       .  S
C709        C710   1.396       .  A
C709        H713   1.078       .  S
C710        C711   1.397       .  A
C710        C949   1.479       .  S
C711        H714   1.084       .  S
Zr715       O716   2.437       .  S
Zr715       O717   2.460       .  S
Zr715       O718   2.434       .  S
Zr715       O721   2.456       .  S
Zr715       O723   2.375       .  S
Zr715       O724   2.383       .  S
Zr715       O725   2.424       .  S
Zr715       O726   2.410       .  S
O716        H772   0.990       .  S
O716        H780   0.990       .  S
O717        C737   1.291       .  A
O718        C739   1.285       .  A
O719       Zr729   2.416       .  S
O719        C738   1.283       .  A
O720       Zr728   2.417       .  S
O720        C739   1.280       .  A
O721        C738   1.288       .  A
O722       Zr730   2.407   1_545  S
O722        C737   1.276       .  A
O723       Zr728   2.378       .  S
O723       Zr730   2.361   1_545  S
O724       Zr729   2.392       .  S
O724       Zr730   2.384   1_545  S
O724        H759   0.966       .  S
O725       Zr728   2.393       .  S
O725       Zr745   2.419       .  S
O725        H762   0.966       .  S
O726       Zr729   2.383       .  S
O726       Zr745   2.409       .  S
Zr727       O752   2.453       .  S
Zr727       O746   2.406       .  S
Zr727       O754   2.426       .  S
Zr727       O742   2.429       .  S
Zr727       O733   2.387       .  S
Zr727       O734   2.387       .  S
Zr727       O735   2.376       .  S
Zr727       O736   2.382       .  S
Zr728       O747   2.436       .  S
Zr728       O740   2.432   1_545  S
Zr728       O741   2.415   1_545  S
Zr728       O734   2.394   1_545  S
Zr728       O735   2.375   1_545  S
Zr729       O731   2.436       .  S
Zr729       O753   2.439       .  S
Zr729       O755   2.421   1_545  S
Zr729       O733   2.381   1_545  S
Zr729       O736   2.389   1_545  S
Zr730       O756   2.439   1_565  S
Zr730       O757   2.436       .  S
Zr730       O732   2.437       .  S
Zr730       O733   2.372       .  S
Zr730       O734   2.389       .  S
O731        H768   0.990       .  S
O732        H763   0.990       .  S
O732        H777   0.990       .  S
O734        H760   0.966       .  S
O735       Zr745   2.363   1_565  S
O736       Zr745   2.386   1_565  S
O736        H761   0.965       .  S
C737        C853   1.505       .  S
C738        C965   1.498       .  S
C739       C1250   1.488       .  S
O740        H776   0.990       .  S
O741        C743   1.280       .  A
O742        C743   1.283       .  A
C743        C866   1.462       .  S
O744       Zr745   2.441       .  S
O744        H773   0.990       .  S
Zr745       O748   2.437       .  S
Zr745       O749   2.441       .  S
Zr745       O750   2.464   1_545  S
O746        C751   1.282       .  A
O747        H764   0.990       .  S
O747        H779   0.990       .  S
O748        H765   0.990       .  S
O749        H769   0.990       .  S
O749        H778   0.989       .  S
O750        C751   1.288       .  A
C751        C885   1.493       .  S
O752        H771   0.990       .  S
O752        H775   0.990       .  S
O753        H767   0.990       .  S
O753        H774   0.990       .  S
O754        C758   1.282       .  A
O755        C758   1.282       .  A
O756        H766   0.989   1_545  S
O757        H770   0.990       .  S
C758        C834   1.466       .  S
C781        C782   1.406       .  A
C781        C786   1.408       .  A
C781        C917   1.489       .  S
C782        C783   1.397       .  A
C782        H787   1.085       .  S
C783        C784   1.393       .  A
C783        C869   1.470       .  S
C784        C785   1.399       .  A
C784        H788   1.085       .  S
C785        C786   1.408       .  A
C785       C1909   1.475       .  S
C786        H789   1.081       .  S
C790        C791   1.402       .  A
C790        C795   1.407       .  A
C790       C1301   1.483       .  S
C791        C792   1.404       .  A
C791        H796   1.085       .  S
C792        C793   1.396       .  A
C792        C850   1.481       .  S
C793        C794   1.401       .  A
C793        H797   1.083       .  S
C794        C795   1.407       .  A
C794        C818   1.475       .  S
C795        H798   1.083       .  S
C799        C800   1.399       .  A
C799        C804   1.401       .  A
C799       C1954   1.470       .  S
C800        C801   1.398       .  A
C800        H805   1.084       .  S
C801        C802   1.399       .  A
C801        C994   1.474       .  S
C802        C803   1.411       .  A
C802        H806   1.084       .  S
C803        C804   1.401       .  A
C803        C837   1.503       .  S
C804        H807   1.073       .  S
C808        C809   1.408       .  A
C808        C813   1.411       .  A
C808       C1509   1.497       .  S
C809        C810   1.402       .  A
C809        H814   1.082       .  S
C810        C811   1.402       .  A
C810        C821   1.484       .  S
C811        C812   1.399       .  A
C811        H815   1.082       .  S
C812        C813   1.408       .  A
C812       C1125   1.488       .  S
C813        H816   1.083       .  S
C817        C818   1.399       .  A
C817        C822   1.403       .  A
C817        H824   1.085       .  S
C818        C819   1.415       .  A
C819        C820   1.408       .  A
C819        C826   1.517       .  S
C820        C821   1.405       .  A
C820        H825   1.083       .  S
C821        C822   1.420       .  A
C822        C823   1.518       .  S
C823        F827   1.384       .  S
C823        F828   1.383       .  S
C823        F829   1.383       .  S
C826        F830   1.382       .  S
C826        F831   1.383       .  S
C826        F832   1.385       .  S
C833        C834   1.392       .  A
C833        C838   1.407       .  A
C833        H840   1.083       .  S
C834        C835   1.411       .  A
C835        C836   1.401       .  A
C835        C842   1.518       .  S
C836        C837   1.409       .  A
C836        H841   1.083       .  S
C837        C838   1.436       .  A
C838        C839   1.523       .  S
C839        F843   1.385       .  S
C839        F844   1.382       .  S
C839        F845   1.380       .  S
C842        F846   1.380       .  S
C842        F847   1.383       .  S
C842        F848   1.385       .  S
C849        C850   1.392       .  A
C849        C854   1.399       .  A
C849        H856   1.083       .  S
C850        C851   1.414       .  A
C851        C852   1.413       .  A
C851        C858   1.518       .  S
C852        C853   1.413       .  A
C852        H857   1.082       .  S
C853        C854   1.435       .  A
C854        C855   1.522       .  S
C855        F859   1.385       .  S
C855        F860   1.381       .  S
C855        F861   1.381       .  S
C858        F862   1.381       .  S
C858        F863   1.383       .  S
C858        F864   1.384       .  S
C865        C866   1.398       .  A
C865        C870   1.400       .  A
C865        H872   1.084       .  S
C866        C867   1.411       .  A
C867        C868   1.408       .  A
C867        C874   1.516       .  S
C868        C869   1.403       .  A
C868        H873   1.083       .  S
C869        C870   1.415       .  A
C870        C871   1.520       .  S
C871        F875   1.385       .  S
C871        F876   1.382       .  S
C871        F877   1.383       .  S
C874        F878   1.380       .  S
C874        F879   1.382       .  S
C874        F880   1.384       .  S
C881        C882   1.410       .  A
C881        C886   1.418       .  A
C881        H888   1.082       .  S
C882        C883   1.420       .  A
C883        C884   1.397       .  A
C883        C890   1.523       .  S
C884        C885   1.405       .  A
C884        H889   1.085       .  S
C885        C886   1.420       .  A
C886        C887   1.516       .  S
C887        F891   1.384       .  S
C887        F892   1.383       .  S
C887        F893   1.383       .  S
C890        F894   1.383       .  S
C890        F895   1.383       .  S
C890        F896   1.383       .  S
C897        C898   1.402       .  A
C897        C902   1.404       .  A
C897        H904   1.084       .  S
C898        C899   1.414       .  A
C899        C900   1.402       .  A
C899        C906   1.517       .  S
C900        C901   1.403       .  A
C900        H905   1.083       .  S
C901        C902   1.417       .  A
C902        C903   1.519       .  S
C903        F907   1.385       .  S
C903        F908   1.380       .  S
C903        F909   1.384       .  S
C906        F910   1.381       .  S
C906        F911   1.382       .  S
C906        F912   1.385       .  S
C913        C914   1.411       .  A
C913        C918   1.411       .  A
C913        H920   1.082       .  S
C914        C915   1.430       .  A
C915        C916   1.405       .  A
C915        C922   1.522       .  S
C916        C917   1.400       .  A
C916        H921   1.083       .  S
C917        C918   1.416       .  A
C918        C919   1.517       .  S
C919        F923   1.384       .  S
C919        F924   1.383       .  S
C919        F925   1.380       .  S
C922        F926   1.382       .  S
C922        F927   1.383       .  S
C922        F928   1.385       .  S
C929        C930   1.403       .  A
C929        C934   1.401       .  A
C929        H936   1.082       .  S
C930        C931   1.418       .  A
C931        C932   1.407       .  A
C931        C938   1.520       .  S
C932        C933   1.403       .  A
C932        H937   1.083       .  S
C933        C934   1.414       .  A
C934        C935   1.518       .  S
C935        F939   1.385       .  S
C935        F940   1.384       .  S
C935        F941   1.381       .  S
C938        F942   1.383       .  S
C938        F943   1.381       .  S
C938        F944   1.384       .  S
C945        C946   1.411       .  A
C945        C950   1.415       .  A
C945        H952   1.083       .  S
C946        C947   1.420       .  A
C947        C948   1.394       .  A
C947        C954   1.520       .  S
C948        C949   1.399       .  A
C948        H953   1.084       .  S
C949        C950   1.411       .  A
C950        C951   1.514       .  S
C951        F955   1.384       .  S
C951        F956   1.383       .  S
C951        F957   1.383       .  S
C954        F958   1.382       .  S
C954        F959   1.383       .  S
C954        F960   1.385       .  S
C961        C962   1.405       .  A
C961        C966   1.415       .  A
C961        H968   1.083       .  S
C962        C963   1.412       .  A
C963        C964   1.404       .  A
C963        C970   1.521       .  S
C964        C965   1.411       .  A
C964        H969   1.083       .  S
C965        C966   1.422       .  A
C966        C967   1.518       .  S
C967        F971   1.385       .  S
C967        F972   1.383       .  S
C967        F973   1.383       .  S
C970        F974   1.383       .  S
C970        F975   1.382       .  S
C970        F976   1.384       .  S
C977        C978   1.410       .  A
C977        C982   1.399       .  A
C977        H984   1.081       .  S
C978        C979   1.445       .  A
C979        C980   1.413       .  A
C979        C986   1.518       .  S
C980        C981   1.393       .  A
C980        H985   1.083       .  S
C981        C982   1.415       .  A
C982        C983   1.519   1_565  S
C983        F987   1.386       .  S
C983        F988   1.380       .  S
C983        F989   1.384       .  S
C986        F990   1.383       .  S
C986        F991   1.373       .  S
C986        F992   1.386       .  S
C993        C994   1.403       .  A
C993        C998   1.412       .  A
C993       H1000   1.083       .  S
C994        C995   1.410       .  A
C995        C996   1.399       .  A
C995       C1002   1.523       .  S
C996        C997   1.412       .  A
C996       H1001   1.082       .  S
C997        C998   1.423       .  A
C998        C999   1.519       .  S
C999       F1003   1.385       .  S
C999       F1004   1.383       .  S
C999       F1005   1.383       .  S
C1002      F1006   1.383       .  S
C1002      F1007   1.382       .  S
C1002      F1008   1.385       .  S
C1009      C1010   1.393       .  A
C1009      C1014   1.410       .  A
C1009      H1016   1.083       .  S
C1010      C1011   1.411       .  A
C1011      C1012   1.404       .  A
C1011      C1018   1.518       .  S
C1012      C1013   1.411       .  A
C1012      H1017   1.082       .  S
C1013      C1014   1.439       .  A
C1014      C1015   1.525       .  S
C1015      F1019   1.385       .  S
C1015      F1020   1.383       .  S
C1015      F1021   1.382       .  S
C1018      F1022   1.380       .  S
C1018      F1023   1.382       .  S
C1018      F1024   1.385       .  S
C1025      C1026   1.403       .  A
C1025      C1030   1.403       .  A
C1025      H1032   1.083       .  S
C1026      C1027   1.415       .  A
C1027      C1028   1.397       .  A
C1027      C1034   1.523       .  S
C1028      C1029   1.405       .  A
C1028      H1033   1.083       .  S
C1029      C1030   1.418       .  A
C1030      C1031   1.520       .  S
C1031      F1035   1.385       .  S
C1031      F1036   1.379       .  S
C1031      F1037   1.383       .  S
C1034      F1038   1.381       .  S
C1034      F1039   1.384       .  S
C1034      F1040   1.385       .  S
C1041      C1042   1.413       .  A
C1041      C1046   1.410       .  A
C1041      H1048   1.083       .  S
C1042      C1043   1.434   1_554  A
C1043      C1044   1.402       .  A
C1043      C1050   1.520       .  S
C1044      C1045   1.395       .  A
C1044      H1049   1.083       .  S
C1045      C1046   1.415   1_556  A
C1046      C1047   1.517       .  S
C1047      F1051   1.385       .  S
C1047      F1052   1.384       .  S
C1047      F1053   1.382   1_554  S
C1050      F1054   1.384   1_556  S
C1050      F1055   1.382       .  S
C1050      F1056   1.386       .  S
C1057      C1058   1.402       .  A
C1057      C1062   1.407       .  A
C1057      H1064   1.085       .  S
C1058      C1059   1.413       .  A
C1059      C1060   1.403       .  A
C1059      C1066   1.517       .  S
C1060      C1061   1.402       .  A
C1060      H1065   1.084       .  S
C1061      C1062   1.419       .  A
C1062      C1063   1.517       .  S
C1063      F1067   1.383       .  S
C1063      F1068   1.381       .  S
C1063      F1069   1.383       .  S
C1066      F1070   1.380       .  S
C1066      F1071   1.384       .  S
C1066      F1072   1.385       .  S
C1073      C1074   1.408       .  A
C1073      C1078   1.393       .  A
C1073      H1080   1.085       .  S
C1074      C1075   1.421       .  A
C1075      C1076   1.405       .  A
C1075      C1082   1.513       .  S
C1076      C1077   1.399       .  A
C1076      H1081   1.084       .  S
C1077      C1078   1.411       .  A
C1078      C1079   1.521       .  S
C1079      F1083   1.384       .  S
C1079      F1084   1.379       .  S
C1079      F1085   1.383       .  S
C1082      F1086   1.377       .  S
C1082      F1087   1.383       .  S
C1082      F1088   1.385       .  S
C1089      C1090   1.404       .  A
C1089      C1094   1.400       .  A
C1089      H1096   1.083       .  S
C1090      C1091   1.418       .  A
C1091      C1092   1.414       .  A
C1091      C1098   1.518       .  S
C1092      C1093   1.409       .  A
C1092      H1097   1.083       .  S
C1093      C1094   1.421       .  A
C1094      C1095   1.518       .  S
C1095      F1099   1.385       .  S
C1095      F1100   1.378   1_556  S
C1095      F1101   1.382       .  S
C1098      F1102   1.381       .  S
C1098      F1103   1.383       .  S
C1098      F1104   1.384       .  S
C1105      C1106   1.400       .  A
C1105      C1110   1.404       .  A
C1105      H1112   1.084       .  S
C1106      C1107   1.417       .  A
C1107      C1108   1.413       .  A
C1107      C1114   1.516       .  S
C1108      C1109   1.404       .  A
C1108      H1113   1.083       .  S
C1109      C1110   1.415       .  A
C1110      C1111   1.514       .  S
C1111      F1115   1.385       .  S
C1111      F1116   1.382       .  S
C1111      F1117   1.381       .  S
C1114      F1118   1.383       .  S
C1114      F1119   1.382       .  S
C1114      F1120   1.385       .  S
C1121      C1122   1.401       .  A
C1121      C1126   1.409       .  A
C1121      H1128   1.083       .  S
C1122      C1123   1.415       .  A
C1123      C1124   1.407       .  A
C1123      C1130   1.517       .  S
C1124      C1125   1.404       .  A
C1124      H1129   1.083       .  S
C1125      C1126   1.422       .  A
C1126      C1127   1.521       .  S
C1127      F1131   1.385       .  S
C1127      F1132   1.381       .  S
C1127      F1133   1.383       .  S
C1130      F1134   1.382       .  S
C1130      F1135   1.383       .  S
C1130      F1136   1.384       .  S
C1137      C1138   1.407       .  A
C1137      C1142   1.412       .  A
C1137      H1144   1.083       .  S
C1138      C1139   1.421       .  A
C1139      C1140   1.401       .  A
C1139      C1146   1.519       .  S
C1140      C1141   1.396       .  A
C1140      H1145   1.082       .  S
C1141      C1142   1.412       .  A
C1142      C1143   1.515       .  S
C1143      F1147   1.384       .  S
C1143      F1148   1.383       .  S
C1143      F1149   1.383       .  S
C1146      F1150   1.383       .  S
C1146      F1151   1.378       .  S
C1146      F1152   1.383       .  S
C1153      C1154   1.399       .  A
C1153      C1158   1.405       .  A
C1153      H1160   1.085       .  S
C1154      C1155   1.413       .  A
C1155      C1156   1.405       .  A
C1155      C1162   1.518       .  S
C1156      C1157   1.406       .  A
C1156      H1161   1.081       .  S
C1157      C1158   1.422       .  A
C1158      C1159   1.515       .  S
C1159      F1163   1.384       .  S
C1159      F1164   1.382       .  S
C1159      F1165   1.383       .  S
C1162      F1166   1.383       .  S
C1162      F1167   1.381       .  S
C1162      F1168   1.385       .  S
C1169      C1170   1.392       .  A
C1169      C1174   1.390       .  A
C1169      H1176   1.086       .  S
C1170      C1171   1.416       .  A
C1171      C1172   1.411       .  A
C1171      C1178   1.516       .  S
C1172      C1173   1.404       .  A
C1172      H1177   1.083       .  S
C1173      C1174   1.422       .  A
C1174      C1175   1.519       .  S
C1175      F1179   1.384       .  S
C1175      F1180   1.383       .  S
C1175      F1181   1.377       .  S
C1178      F1182   1.381       .  S
C1178      F1183   1.384       .  S
C1178      F1184   1.385       .  S
C1185      C1186   1.408       .  A
C1185      C1190   1.401       .  A
C1185      H1192   1.083       .  S
C1186      C1187   1.420       .  A
C1187      C1188   1.401       .  A
C1187      C1194   1.519       .  S
C1188      C1189   1.399       .  A
C1188      H1193   1.084       .  S
C1189      C1190   1.410       .  A
C1190      C1191   1.520       .  S
C1191      F1195   1.385       .  S
C1191      F1196   1.381       .  S
C1191      F1197   1.383       .  S
C1194      F1198   1.382       .  S
C1194      F1199   1.384       .  S
C1194      F1200   1.385       .  S
C1201      C1202   1.400       .  A
C1201      C1206   1.406       .  A
C1201      H1208   1.084       .  S
C1202      C1203   1.411       .  A
C1203      C1204   1.403       .  A
C1203      C1210   1.517       .  S
C1204      C1205   1.406       .  A
C1204      H1209   1.083       .  S
C1205      C1206   1.420       .  A
C1206      C1207   1.521       .  S
C1207      F1211   1.384       .  S
C1207      F1212   1.383       .  S
C1207      F1213   1.381       .  S
C1210      F1214   1.384       .  S
C1210      F1215   1.380       .  S
C1210      F1216   1.384       .  S
C1217      C1218   1.402       .  A
C1217      C1222   1.409       .  A
C1217      H1224   1.083       .  S
C1218      C1219   1.415       .  A
C1219      C1220   1.405       .  A
C1219      C1226   1.517       .  S
C1220      C1221   1.401       .  A
C1220      H1225   1.083       .  S
C1221      C1222   1.416       .  A
C1222      C1223   1.517       .  S
C1223      F1227   1.385       .  S
C1223      F1228   1.383       .  S
C1223      F1229   1.381       .  S
C1226      F1230   1.382       .  S
C1226      F1231   1.381       .  S
C1226      F1232   1.385       .  S
C1233      C1234   1.401       .  A
C1233      C1238   1.400       .  A
C1233      H1240   1.081       .  S
C1234      C1235   1.416       .  A
C1235      C1236   1.405       .  A
C1235      C1242   1.516       .  S
C1236      C1237   1.403       .  A
C1236      H1241   1.083       .  S
C1237      C1238   1.418       .  A
C1238      C1239   1.521       .  S
C1239      F1243   1.385       .  S
C1239      F1244   1.382       .  S
C1239      F1245   1.381       .  S
C1242      F1246   1.380       .  S
C1242      F1247   1.383       .  S
C1242      F1248   1.385       .  S
C1249      C1250   1.410       .  A
C1249      C1254   1.408       .  A
C1249      H1256   1.083       .  S
C1250      C1251   1.427       .  A
C1251      C1252   1.396       .  A
C1251      C1258   1.520       .  S
C1252      C1253   1.394       .  A
C1252      H1257   1.084       .  S
C1253      C1254   1.412       .  A
C1254      C1255   1.518       .  S
C1255      F1259   1.384       .  S
C1255      F1260   1.383       .  S
C1255      F1261   1.382       .  S
C1258      F1262   1.383       .  S
C1258      F1263   1.382       .  S
C1258      F1264   1.385       .  S
C1265      C1266   1.403       .  A
C1265      C1270   1.415       .  A
C1265      H1272   1.083       .  S
C1266      C1267   1.408       .  A
C1267      C1268   1.402       .  A
C1267      C1274   1.522       .  S
C1268      C1269   1.416       .  A
C1268      H1273   1.080       .  S
C1269      C1270   1.426       .  A
C1270      C1271   1.517   1_655  S
C1271      F1275   1.385       .  S
C1271      F1276   1.383   1_455  S
C1271      F1277   1.383       .  S
C1274      F1278   1.383       .  S
C1274      F1279   1.382       .  S
C1274      F1280   1.385       .  S
C1281      C1282   1.406       .  A
C1281      C1286   1.412       .  A
C1281      H1288   1.084       .  S
C1282      C1283   1.421       .  A
C1283      C1284   1.407       .  A
C1283      C1290   1.515       .  S
C1284      C1285   1.403       .  A
C1284      H1289   1.083       .  S
C1285      C1286   1.423       .  A
C1286      C1287   1.521       .  S
C1287      F1291   1.385       .  S
C1287      F1292   1.383       .  S
C1287      F1293   1.382       .  S
C1290      F1294   1.379       .  S
C1290      F1295   1.383       .  S
C1290      F1296   1.384       .  S
C1297      C1298   1.411       .  A
C1297      C1302   1.408       .  A
C1297      H1304   1.083       .  S
C1298      C1299   1.425       .  A
C1299      C1300   1.411       .  A
C1299      C1306   1.519       .  S
C1300      C1301   1.401       .  A
C1300      H1305   1.083       .  S
C1301      C1302   1.411       .  A
C1302      C1303   1.517       .  S
C1303      F1307   1.383       .  S
C1303      F1308   1.383       .  S
C1303      F1309   1.383       .  S
C1306      F1310   1.382       .  S
C1306      F1311   1.383       .  S
C1306      F1312   1.385       .  S
C1313      C1314   1.407       .  A
C1313      C1318   1.408       .  A
C1313      H1320   1.084       .  S
C1314      C1315   1.419       .  A
C1315      C1316   1.398       .  A
C1315      C1322   1.520       .  S
C1316      C1317   1.404       .  A
C1316      H1321   1.083       .  S
C1317      C1318   1.418       .  A
C1318      C1319   1.518       .  S
C1319      F1323   1.384       .  S
C1319      F1324   1.383       .  S
C1319      F1325   1.382       .  S
C1322      F1326   1.380       .  S
C1322      F1327   1.384       .  S
C1322      F1328   1.385       .  S
C1329      C1330   1.406       .  A
C1329      C1334   1.409       .  A
C1329      H1336   1.083       .  S
C1330      C1331   1.421       .  A
C1331      C1332   1.403       .  A
C1331      C1338   1.520       .  S
C1332      C1333   1.403       .  A
C1332      H1337   1.081       .  S
C1333      C1334   1.421       .  A
C1334      C1335   1.519       .  S
C1335      F1339   1.385       .  S
C1335      F1340   1.383       .  S
C1335      F1341   1.383       .  S
C1338      F1342   1.383       .  S
C1338      F1343   1.382       .  S
C1338      F1344   1.383       .  S
C1345      C1346   1.406       .  A
C1345      C1350   1.403       .  A
C1345      H1352   1.084       .  S
C1346      C1347   1.420       .  A
C1347      C1348   1.411       .  A
C1347      C1354   1.519       .  S
C1348      C1349   1.409       .  A
C1348      H1353   1.083       .  S
C1349      C1350   1.422       .  A
C1350      C1351   1.522       .  S
C1351      F1355   1.385       .  S
C1351      F1356   1.383       .  S
C1351      F1357   1.383       .  S
C1354      F1358   1.384       .  S
C1354      F1359   1.381       .  S
C1354      F1360   1.385       .  S
C1361      C1362   1.410       .  A
C1361      C1366   1.417       .  A
C1361      H1368   1.083       .  S
C1362      C1363   1.430       .  A
C1363      C1364   1.399       .  A
C1363      C1370   1.518       .  S
C1364      C1365   1.394       .  A
C1364      H1369   1.085       .  S
C1365      C1366   1.414       .  A
C1366      C1367   1.514       .  S
C1367      F1371   1.384       .  S
C1367      F1372   1.384       .  S
C1367      F1373   1.382       .  S
C1370      F1374   1.383       .  S
C1370      F1375   1.382       .  S
C1370      F1376   1.385       .  S
C1377      C1378   1.397       .  A
C1377      C1382   1.403       .  A
C1377      H1384   1.084       .  S
C1378      C1379   1.415       .  A
C1379      C1380   1.416       .  A
C1379      C1386   1.517       .  S
C1380      C1381   1.412       .  A
C1380      H1385   1.083       .  S
C1381      C1382   1.425       .  A
C1382      C1383   1.515       .  S
C1383      F1387   1.385       .  S
C1383      F1388   1.382       .  S
C1383      F1389   1.380       .  S
C1386      F1390   1.383       .  S
C1386      F1391   1.383       .  S
C1386      F1392   1.384       .  S
C1393      C1394   1.410       .  A
C1393      C1398   1.403       .  A
C1393      H1400   1.082       .  S
C1394      C1395   1.439       .  A
C1395      C1396   1.405       .  A
C1395      C1402   1.526       .  S
C1396      C1397   1.390       .  A
C1396      H1401   1.083       .  S
C1397      C1398   1.409       .  A
C1398      C1399   1.517       .  S
C1399      F1403   1.385       .  S
C1399      F1404   1.382       .  S
C1399      F1405   1.382       .  S
C1402      F1406   1.382       .  S
C1402      F1407   1.379       .  S
C1402      F1408   1.385       .  S
C1409      C1410   1.408       .  A
C1409      C1414   1.394       .  A
C1409      H1416   1.082       .  S
C1410      C1411   1.430       .  A
C1411      C1412   1.411       .  A
C1411      C1418   1.521       .  S
C1412      C1413   1.398       .  A
C1412      H1417   1.084       .  S
C1413      C1414   1.407       .  A
C1414      C1415   1.518       .  S
C1415      F1419   1.385       .  S
C1415      F1420   1.372       .  S
C1415      F1421   1.382       .  S
C1418      F1422   1.382       .  S
C1418      F1423   1.383       .  S
C1418      F1424   1.385       .  S
C1425      C1426   1.413       .  A
C1425      C1430   1.410       .  A
C1425      H1432   1.083       .  S
C1426      C1427   1.422       .  A
C1427      C1428   1.404       .  A
C1427      C1434   1.518       .  S
C1428      C1429   1.400       .  A
C1428      H1433   1.084       .  S
C1429      C1430   1.410       .  A
C1430      C1431   1.517       .  S
C1431      F1435   1.385       .  S
C1431      F1436   1.383       .  S
C1431      F1437   1.383       .  S
C1434      F1438   1.383       .  S
C1434      F1439   1.382       .  S
C1434      F1440   1.385       .  S
C1441      C1442   1.406       .  A
C1441      C1446   1.412       .  A
C1441      H1448   1.083       .  S
C1442      C1443   1.426       .  A
C1443      C1444   1.415       .  A
C1443      C1450   1.518       .  S
C1444      C1445   1.402       .  A
C1444      H1449   1.083       .  S
C1445      C1446   1.421       .  A
C1446      C1447   1.520       .  S
C1447      F1451   1.385       .  S
C1447      F1452   1.381       .  S
C1447      F1453   1.383       .  S
C1450      F1454   1.383       .  S
C1450      F1455   1.382       .  S
C1450      F1456   1.385       .  S
C1457      C1458   1.406       .  A
C1457      C1462   1.408       .  A
C1457      H1464   1.083       .  S
C1458      C1459   1.421       .  A
C1459      C1460   1.405       .  A
C1459      C1466   1.516       .  S
C1460      C1461   1.400       .  A
C1460      H1465   1.084       .  S
C1461      C1462   1.419       .  A
C1462      C1463   1.522       .  S
C1463      F1467   1.385       .  S
C1463      F1468   1.383       .  S
C1463      F1469   1.381       .  S
C1466      F1470   1.379       .  S
C1466      F1471   1.382       .  S
C1466      F1472   1.385       .  S
C1473      C1474   1.399       .  A
C1473      C1478   1.410       .  A
C1473      H1480   1.083       .  S
C1474      C1475   1.414       .  A
C1475      C1476   1.406       .  A
C1475      C1482   1.522       .  S
C1476      C1477   1.412       .  A
C1476      H1481   1.082       .  S
C1477      C1478   1.430       .  A
C1478      C1479   1.520       .  S
C1479      F1483   1.385       .  S
C1479      F1484   1.383       .  S
C1479      F1485   1.381   1_554  S
C1482      F1486   1.381       .  S
C1482      F1487   1.380       .  S
C1482      F1488   1.385       .  S
C1489      C1490   1.397       .  A
C1489      C1494   1.390       .  A
C1489      H1496   1.084       .  S
C1490      C1491   1.424       .  A
C1491      C1492   1.424   1_655  A
C1491      C1498   1.516       .  S
C1492      C1493   1.410       .  A
C1492      H1497   1.083       .  S
C1493      C1494   1.423   1_455  A
C1494      C1495   1.518       .  S
C1495      F1499   1.386   1_655  S
C1495      F1500   1.381       .  S
C1495      F1501   1.382   1_655  S
C1498      F1502   1.380       .  S
C1498      F1503   1.383   1_655  S
C1498      F1504   1.385   1_655  S
C1505      C1506   1.398       .  A
C1505      C1510   1.406       .  A
C1505      H1512   1.085       .  S
C1506      C1507   1.413       .  A
C1507      C1508   1.409       .  A
C1507      C1514   1.517       .  S
C1508      C1509   1.409       .  A
C1508      H1513   1.083       .  S
C1509      C1510   1.426       .  A
C1510      C1511   1.519       .  S
C1511      F1515   1.384       .  S
C1511      F1516   1.383       .  S
C1511      F1517   1.382       .  S
C1514      F1518   1.383       .  S
C1514      F1519   1.383       .  S
C1514      F1520   1.385       .  S
C1521      C1522   1.414       .  A
C1521      C1526   1.401       .  A
C1521      H1528   1.077       .  S
C1522      C1523   1.431   1_554  A
C1523      C1524   1.416   1_556  A
C1523      C1530   1.516       .  S
C1524      C1525   1.402       .  A
C1524      H1529   1.084   1_554  S
C1525      C1526   1.412       .  A
C1526      C1527   1.521       .  S
C1527      F1531   1.385       .  S
C1527      F1532   1.380       .  S
C1527      F1533   1.384       .  S
C1530      F1534   1.383       .  S
C1530      F1535   1.382       .  S
C1530      F1536   1.384   1_556  S
C1537      C1538   1.407   1_565  A
C1537      C1542   1.415       .  A
C1537      H1544   1.083       .  S
C1538      C1539   1.420       .  A
C1539      C1540   1.407   1_545  A
C1539      C1546   1.521       .  S
C1540      C1541   1.409       .  A
C1540      H1545   1.083   1_565  S
C1541      C1542   1.424       .  A
C1542      C1543   1.519       .  S
C1543      F1547   1.385       .  S
C1543      F1548   1.383       .  S
C1543      F1549   1.382       .  S
C1546      F1550   1.383       .  S
C1546      F1551   1.383       .  S
C1546      F1552   1.385       .  S
C1553      C1554   1.404       .  A
C1553      C1558   1.402       .  A
C1553      H1560   1.080   1_565  S
C1554      C1555   1.419       .  A
C1555      C1556   1.412       .  A
C1555      C1562   1.519       .  S
C1556      C1557   1.412       .  A
C1556      H1561   1.082       .  S
C1557      C1558   1.430       .  A
C1558      C1559   1.527       .  S
C1559      F1563   1.385   1_565  S
C1559      F1564   1.382       .  S
C1559      F1565   1.377       .  S
C1562      F1566   1.383       .  S
C1562      F1567   1.383       .  S
C1562      F1568   1.385       .  S
C1569      C1570   1.399       .  A
C1569      C1574   1.409       .  A
C1569      H1576   1.084       .  S
C1570      C1571   1.422   1_556  A
C1571      C1572   1.420       .  A
C1571      C1578   1.517       .  S
C1572      C1573   1.408       .  A
C1572      H1577   1.083       .  S
C1573      C1574   1.428   1_554  A
C1574      C1575   1.517       .  S
C1575      F1579   1.385       .  S
C1575      F1580   1.384       .  S
C1575      F1581   1.382       .  S
C1578      F1582   1.383       .  S
C1578      F1583   1.381       .  S
C1578      F1584   1.384       .  S
C1585      C1586   1.400       .  A
C1585      C1590   1.415   1_556  A
C1585      H1592   1.083   1_556  S
C1586      C1587   1.414       .  A
C1587      C1588   1.402       .  A
C1587      C1594   1.522       .  S
C1588      C1589   1.410       .  A
C1588      H1593   1.082       .  S
C1589      C1590   1.428   1_556  A
C1590      C1591   1.514       .  S
C1591      F1595   1.385       .  S
C1591      F1596   1.383       .  S
C1591      F1597   1.379       .  S
C1594      F1598   1.383       .  S
C1594      F1599   1.381       .  S
C1594      F1600   1.385       .  S
C1601      C1602   1.418       .  A
C1601      C1606   1.404       .  A
C1601      H1608   1.081   1_655  S
C1602      C1603   1.428       .  A
C1603      C1604   1.419       .  A
C1603      C1610   1.517       .  S
C1604      C1605   1.404       .  A
C1604      H1609   1.083       .  S
C1605      C1606   1.409       .  A
C1606      C1607   1.522   1_655  S
C1607      F1611   1.385       .  S
C1607      F1612   1.384   1_455  S
C1607      F1613   1.381       .  S
C1610      F1614   1.382       .  S
C1610      F1615   1.379   1_565  S
C1610      F1616   1.385       .  S
C1617      C1618   1.406       .  A
C1617      C1622   1.406       .  A
C1617      H1624   1.083       .  S
C1618      C1619   1.418       .  A
C1619      C1620   1.411       .  A
C1619      C1626   1.519       .  S
C1620      C1621   1.405       .  A
C1620      H1625   1.083       .  S
C1621      C1622   1.414       .  A
C1622      C1623   1.517       .  S
C1623      F1627   1.385       .  S
C1623      F1628   1.383   1_655  S
C1623      F1629   1.378       .  S
C1626      F1630   1.383       .  S
C1626      F1631   1.381       .  S
C1626      F1632   1.385       .  S
C1633      C1634   1.400       .  A
C1633      C1638   1.401       .  A
C1633      H1640   1.084       .  S
C1634      C1635   1.417       .  A
C1635      C1636   1.413       .  A
C1635      C1642   1.517       .  S
C1636      C1637   1.406       .  A
C1636      H1641   1.083       .  S
C1637      C1638   1.417       .  A
C1638      C1639   1.516       .  S
C1639      F1643   1.385       .  S
C1639      F1644   1.376       .  S
C1639      F1645   1.382       .  S
C1642      F1646   1.381       .  S
C1642      F1647   1.383       .  S
C1642      F1648   1.385       .  S
C1649      C1650   1.427       .  A
C1649      C1654   1.413       .  A
C1649      H1656   1.076       .  S
C1650      C1651   1.447       .  A
C1651      C1652   1.406       .  A
C1651      C1658   1.528       .  S
C1652      C1653   1.394       .  A
C1652      H1657   1.081       .  S
C1653      C1654   1.404       .  A
C1654      C1655   1.517       .  S
C1655      F1659   1.385       .  S
C1655      F1660   1.383       .  S
C1655      F1661   1.381       .  S
C1658      F1662   1.383       .  S
C1658      F1663   1.383       .  S
C1658      F1664   1.384       .  S
C1665      C1666   1.403       .  A
C1665      C1670   1.404       .  A
C1665      H1672   1.083       .  S
C1666      C1667   1.420       .  A
C1667      C1668   1.411       .  A
C1667      C1674   1.518       .  S
C1668      C1669   1.402       .  A
C1668      H1673   1.083       .  S
C1669      C1670   1.416       .  A
C1670      C1671   1.520       .  S
C1671      F1675   1.385       .  S
C1671      F1676   1.382       .  S
C1671      F1677   1.382       .  S
C1674      F1678   1.381       .  S
C1674      F1679   1.383       .  S
C1674      F1680   1.384       .  S
C1681      C1682   1.408       .  A
C1681      C1686   1.410       .  A
C1681      H1688   1.083       .  S
C1682      C1683   1.414       .  A
C1683      C1684   1.406       .  A
C1683      C1690   1.518       .  S
C1684      C1685   1.405       .  A
C1684      H1689   1.083       .  S
C1685      C1686   1.413       .  A
C1686      C1687   1.518       .  S
C1687      F1691   1.385       .  S
C1687      F1692   1.381       .  S
C1687      F1693   1.383       .  S
C1690      F1694   1.381       .  S
C1690      F1695   1.383       .  S
C1690      F1696   1.385       .  S
C1697      C1698   1.405       .  A
C1697      C1702   1.412       .  A
C1697      H1704   1.083       .  S
C1698      C1699   1.419       .  A
C1699      C1700   1.414       .  A
C1699      C1706   1.516       .  S
C1700      C1701   1.404       .  A
C1700      H1705   1.083       .  S
C1701      C1702   1.419       .  A
C1702      C1703   1.518       .  S
C1703      F1707   1.385       .  S
C1703      F1708   1.380       .  S
C1703      F1709   1.383       .  S
C1706      F1710   1.380       .  S
C1706      F1711   1.384       .  S
C1706      F1712   1.384       .  S
C1713      C1714   1.404       .  A
C1713      C1718   1.399       .  A
C1713      H1720   1.085       .  S
C1714      C1715   1.425       .  A
C1715      C1716   1.423       .  A
C1715      C1722   1.516       .  S
C1716      C1717   1.412       .  A
C1716      H1721   1.082       .  S
C1717      C1718   1.428       .  A
C1718      C1719   1.523       .  S
C1719      F1723   1.385       .  S
C1719      F1724   1.378       .  S
C1719      F1725   1.383       .  S
C1722      F1726   1.384       .  S
C1722      F1727   1.380       .  S
C1722      F1728   1.385       .  S
C1729      C1730   1.400       .  A
C1729      C1734   1.411       .  A
C1729      H1736   1.083       .  S
C1730      C1731   1.416       .  A
C1731      C1732   1.402       .  A
C1731      C1738   1.519       .  S
C1732      C1733   1.406       .  A
C1732      H1737   1.085       .  S
C1733      C1734   1.428       .  A
C1734      C1735   1.523       .  S
C1735      F1739   1.385       .  S
C1735      F1740   1.381       .  S
C1735      F1741   1.383       .  S
C1738      F1742   1.383       .  S
C1738      F1743   1.383       .  S
C1738      F1744   1.383       .  S
C1745      C1746   1.406       .  A
C1745      C1750   1.410       .  A
C1745      H1752   1.083       .  S
C1746      C1747   1.422       .  A
C1747      C1748   1.405       .  A
C1747      C1754   1.523       .  S
C1748      C1749   1.401       .  A
C1748      H1753   1.084       .  S
C1749      C1750   1.416       .  A
C1750      C1751   1.518       .  S
C1751      F1755   1.384       .  S
C1751      F1756   1.381       .  S
C1751      F1757   1.383       .  S
C1754      F1758   1.381       .  S
C1754      F1759   1.383       .  S
C1754      F1760   1.385       .  S
C1761      C1762   1.400       .  A
C1761      C1766   1.405       .  A
C1761      H1768   1.085       .  S
C1762      C1763   1.416       .  A
C1763      C1764   1.410       .  A
C1763      C1770   1.518       .  S
C1764      C1765   1.407       .  A
C1764      H1769   1.082       .  S
C1765      C1766   1.424       .  A
C1766      C1767   1.520       .  S
C1767      F1771   1.384       .  S
C1767      F1772   1.383       .  S
C1767      F1773   1.383       .  S
C1770      F1774   1.383       .  S
C1770      F1775   1.382       .  S
C1770      F1776   1.384       .  S
C1777      C1778   1.403       .  A
C1777      C1782   1.403       .  A
C1777      H1784   1.083       .  S
C1778      C1779   1.416       .  A
C1779      C1780   1.398       .  A
C1779      C1786   1.519       .  S
C1780      C1781   1.398       .  A
C1780      H1785   1.084       .  S
C1781      C1782   1.413       .  A
C1782      C1783   1.519       .  S
C1783      F1787   1.384       .  S
C1783      F1788   1.381       .  S
C1783      F1789   1.383       .  S
C1786      F1790   1.381       .  S
C1786      F1791   1.382       .  S
C1786      F1792   1.385       .  S
C1793      C1794   1.402       .  A
C1793      C1798   1.407       .  A
C1793      H1800   1.084       .  S
C1794      C1795   1.414       .  A
C1795      C1796   1.391       .  A
C1795      C1802   1.519       .  S
C1796      C1797   1.399       .  A
C1796      H1801   1.086       .  S
C1797      C1798   1.419       .  A
C1798      C1799   1.519       .  S
C1799      F1803   1.385       .  S
C1799      F1804   1.381       .  S
C1799      F1805   1.383       .  S
C1802      F1806   1.383       .  S
C1802      F1807   1.379       .  S
C1802      F1808   1.383       .  S
C1809      C1810   1.394       .  A
C1809      C1814   1.395       .  A
C1809      H1816   1.084       .  S
C1810      C1811   1.412       .  A
C1811      C1812   1.402       .  A
C1811      C1818   1.515       .  S
C1812      C1813   1.400       .  A
C1812      H1817   1.083       .  S
C1813      C1814   1.421       .  A
C1814      C1815   1.522       .  S
C1815      F1819   1.385       .  S
C1815      F1820   1.381       .  S
C1815      F1821   1.383       .  S
C1818      F1822   1.382       .  S
C1818      F1823   1.382       .  S
C1818      F1824   1.384       .  S
C1825      C1826   1.400       .  A
C1825      C1830   1.408       .  A
C1825      H1832   1.083       .  S
C1826      C1827   1.414       .  A
C1827      C1828   1.408       .  A
C1827      C1834   1.518       .  S
C1828      C1829   1.407       .  A
C1828      H1833   1.083       .  S
C1829      C1830   1.423       .  A
C1830      C1831   1.521       .  S
C1831      F1835   1.385       .  S
C1831      F1836   1.381       .  S
C1831      F1837   1.383       .  S
C1834      F1838   1.383       .  S
C1834      F1839   1.382       .  S
C1834      F1840   1.385       .  S
C1841      C1842   1.406       .  A
C1841      C1846   1.408       .  A
C1841      H1848   1.083       .  S
C1842      C1843   1.421       .  A
C1843      C1844   1.404       .  A
C1843      C1850   1.518       .  S
C1844      C1845   1.400       .  A
C1844      H1849   1.085       .  S
C1845      C1846   1.416       .  A
C1846      C1847   1.518       .  S
C1847      F1851   1.385       .  S
C1847      F1852   1.382       .  S
C1847      F1853   1.383       .  S
C1850      F1854   1.383       .  S
C1850      F1855   1.383       .  S
C1850      F1856   1.384       .  S
C1857      C1858   1.400       .  A
C1857      C1862   1.401       .  A
C1857      H1864   1.085       .  S
C1858      C1859   1.417       .  A
C1859      C1860   1.409       .  A
C1859      C1866   1.518       .  S
C1860      C1861   1.403       .  A
C1860      H1865   1.083       .  S
C1861      C1862   1.417       .  A
C1862      C1863   1.519       .  S
C1863      F1867   1.383       .  S
C1863      F1868   1.382       .  S
C1863      F1869   1.384       .  S
C1866      F1870   1.382       .  S
C1866      F1871   1.383       .  S
C1866      F1872   1.384       .  S
C1873      C1874   1.400       .  A
C1873      C1878   1.407       .  A
C1873      H1880   1.085       .  S
C1874      C1875   1.412       .  A
C1875      C1876   1.404       .  A
C1875      C1882   1.519       .  S
C1876      C1877   1.408       .  A
C1876      H1881   1.082       .  S
C1877      C1878   1.425       .  A
C1878      C1879   1.520       .  S
C1879      F1883   1.384       .  S
C1879      F1884   1.383       .  S
C1879      F1885   1.382       .  S
C1882      F1886   1.382       .  S
C1882      F1887   1.383       .  S
C1882      F1888   1.384       .  S
C1889      C1890   1.403       .  A
C1889      C1894   1.405       .  A
C1889      H1896   1.083       .  S
C1890      C1891   1.420       .  A
C1891      C1892   1.405       .  A
C1891      C1898   1.521       .  S
C1892      C1893   1.399       .  A
C1892      H1897   1.084       .  S
C1893      C1894   1.414       .  A
C1894      C1895   1.518       .  S
C1895      F1899   1.384       .  S
C1895      F1900   1.383       .  S
C1895      F1901   1.383       .  S
C1898      F1902   1.381       .  S
C1898      F1903   1.383       .  S
C1898      F1904   1.385       .  S
C1905      C1906   1.401       .  A
C1905      C1910   1.402       .  A
C1905      H1912   1.083       .  S
C1906      C1907   1.414       .  A
C1907      C1908   1.407       .  A
C1907      C1914   1.518       .  S
C1908      C1909   1.405       .  A
C1908      H1913   1.083       .  S
C1909      C1910   1.414       .  A
C1910      C1911   1.517       .  S
C1911      F1915   1.384       .  S
C1911      F1916   1.380       .  S
C1911      F1917   1.383       .  S
C1914      F1918   1.382       .  S
C1914      F1919   1.383       .  S
C1914      F1920   1.385       .  S
C1921      C1922   1.402       .  A
C1921      C1926   1.402       .  A
C1921      H1928   1.083       .  S
C1922      C1923   1.419       .  A
C1923      C1924   1.405       .  A
C1923      C1930   1.520       .  S
C1924      C1925   1.404       .  A
C1924      H1929   1.085       .  S
C1925      C1926   1.421       .  A
C1926      C1927   1.524       .  S
C1927      F1931   1.385       .  S
C1927      F1932   1.381       .  S
C1927      F1933   1.382       .  S
C1930      F1934   1.383       .  S
C1930      F1935   1.381       .  S
C1930      F1936   1.384       .  S
C1937      C1938   1.402       .  A
C1937      C1942   1.390       .  A
C1937      H1944   1.084       .  S
C1938      C1939   1.426       .  A
C1939      C1940   1.416       .  A
C1939      C1946   1.518       .  S
C1940      C1941   1.409       .  A
C1940      H1945   1.083       .  S
C1941      C1942   1.421       .  A
C1942      C1943   1.521       .  S
C1943      F1947   1.387       .  S
C1943      F1948   1.379       .  S
C1943      F1949   1.380       .  S
C1946      F1950   1.383       .  S
C1946      F1951   1.381       .  S
C1946      F1952   1.385       .  S
C1953      C1954   1.402       .  A
C1953      C1958   1.400       .  A
C1953      H1960   1.085       .  S
C1954      C1955   1.406       .  A
C1955      C1956   1.405       .  A
C1955      C1962   1.516       .  S
C1956      C1957   1.412       .  A
C1956      H1961   1.083       .  S
C1957      C1958   1.416       .  A
C1958      C1959   1.518       .  S
C1959      F1963   1.384       .  S
C1959      F1964   1.383       .  S
C1959      F1965   1.382       .  S
C1962      F1966   1.383       .  S
C1962      F1967   1.383       .  S
C1962      F1968   1.384       .  S
