geometry optimzed in LAMMPS
_audit_creation_date              2020-11-30 
_audit_creation_method            'lammps2cif' 
_symmetry_space_group_name_H-M    'P1' 
_symmetry_Int_Tables_number       1 
_symmetry_cell_setting            triclinic 
loop_ 
_symmetry_equiv_pos_as_xyz 
  x,y,z 
_cell_length_a                    59.87701866 
_cell_length_b                    59.69658960874637 
_cell_length_c                    59.86903953413964 
_cell_angle_alpha                 89.97379268139161 
_cell_angle_beta                  89.96270807687473 
_cell_angle_gamma                 89.90402060573297 
loop_ 
_atom_site_label 
_atom_site_type_symbol 
_atom_site_fract_x 
_atom_site_fract_y 
_atom_site_fract_z 
_atom_site_charge 
C1          C  0.73052633  0.76437463  0.76016942     0.80900
N2          N  0.73703122  0.74825925  0.77480436    -0.77400
C3          C  0.75565845  0.73584850  0.77088949     0.83400
N4          N  0.76760405  0.73947707  0.75197523    -0.77300
C5          C  0.76135935  0.75552404  0.73713297     0.83500
N6          N  0.74274316  0.76782968  0.74133850    -0.79000
C7          C  0.25614247  0.74532037  0.21044204     0.80900
N8          N  0.27116106  0.74165696  0.22696744    -0.77400
C9          C  0.26912621  0.72368308  0.24075532     0.83400
N10         N  0.25173116  0.70931736  0.23795253    -0.77300
C11         C  0.23650488  0.71285802  0.22145663     0.83500
N12         N  0.23891607  0.73088212  0.20791571    -0.79000
C13         C  0.71389929  0.75457093  0.23456530     0.80900
N14         N  0.73110351  0.76925012  0.23274152    -0.77400
C15         C  0.74613274  0.76749065  0.21579228     0.83400
N16         N  0.74366988  0.75077642  0.20056872    -0.77300
C17         C  0.72640675  0.73608765  0.20208830     0.83500
N18         N  0.71165865  0.73804769  0.21919597    -0.79000
C19         C  0.23088022  0.25566567  0.25319638     0.80900
N20         N  0.23298960  0.23618515  0.26470488    -0.77400
C21         C  0.25058933  0.22226808  0.26078802     0.83400
N22         N  0.26611698  0.22813866  0.24528090    -0.77300
C23         C  0.26424944  0.24766976  0.23378347     0.83500
N24         N  0.24647220  0.26120493  0.23773948    -0.79000
C25         C  0.70441039  0.21934043  0.23659975     0.80900
N26         N  0.71884887  0.20302057  0.24291621    -0.77400
C27         C  0.73181008  0.20566517  0.26136720     0.83400
N28         N  0.73017252  0.22494546  0.27343381    -0.77300
C29         C  0.71550997  0.24131204  0.26738385     0.83500
N30         N  0.70291311  0.23840364  0.24880354    -0.79000
C31         C  0.75522328  0.24583779  0.71096356     0.80900
N32         N  0.73777387  0.23147674  0.70889688    -0.77400
C33         C  0.73514680  0.21407561  0.72328345     0.83400
N34         N  0.75018898  0.21123917  0.74004048    -0.77300
C35         C  0.76766206  0.22550305  0.74248255     0.83500
N36         N  0.77002706  0.24282412  0.72790105    -0.79000
C37         C  0.21037840  0.73151625  0.73097134     0.80900
N38         N  0.22718192  0.71689890  0.73507096    -0.77400
C39         C  0.24133655  0.72015246  0.75245448     0.83400
N40         N  0.23830818  0.73824159  0.76590801    -0.77300
C41         C  0.22138107  0.75298703  0.76209782     0.83500
N42         N  0.20764848  0.74962342  0.74437019    -0.79000
O43         O  0.05374370  0.03432199  0.00313389    -0.87600
C44         C  0.99029728  0.03948270  0.98091620     0.88400
Mg45       Mg  0.06671119  0.00327248  0.01425507     1.58100
O46         O  0.99884349  0.06270534  0.03422769    -0.87300
O47         O  0.04826195  0.06815604  0.01612141    -0.74700
C48         C  0.99154925  0.96357248  0.08573394     0.93500
O49         O  0.02468006  0.99749184  0.97740000    -0.74500
O50         O  0.00685375  0.95564447  0.07315061    -0.82000
Mg51       Mg  0.03786548  0.03336855  0.97114856     1.58000
C52         C  0.95558583  0.04802912  0.08578994     0.93400
O53         O  0.05125041  0.06860259  0.96174471    -0.80300
H54         H  0.01470623  0.08459573  0.05377663    -0.05600
C55         C  0.97355598  0.99931568  0.03375928     0.88300
O56         O  0.06151163  0.01331403  0.05083965    -0.74800
O57         O  0.00856299  0.04684597  0.98713855    -0.87500
O58         O  0.95457873  0.05759891  0.06669986    -0.80300
C59         C  0.95850464  0.09251934  0.00082115     0.93500
C60         C  0.04377730  0.08860011  0.96280120     0.93400
Mg61       Mg  0.99857832  0.01806867  0.07333982     1.58000
O62         O  0.98611509  0.98412688  0.08474958    -0.80300
O63         O  0.01095275  0.05378849  0.06746334    -0.74500
O64         O  0.97871422  0.09091717  0.99436558    -0.80300
O65         O  0.06852097  0.01791356  0.95377653    -0.82100
O66         O  0.05700614  0.96036743  0.05213117    -0.80400
C67         C  0.00807540  0.06791666  0.05191303     0.87800
O68         O  0.02694673  0.00410008  0.05786006    -0.87500
O69         O  0.98079078  0.01680451  0.04215254    -0.87600
O70         O  0.98577990  0.98200820  0.03146020    -0.74700
Mg71       Mg  0.01269663  0.07756801  0.00520625     1.58000
O72         O  0.95095151  0.08054672  0.01679673    -0.82100
H73         H  0.07762886  0.05142063  0.01896919    -0.05800
O74         O  0.03428905  0.98836747  0.01158530    -0.87300
H75         H  0.01798370  0.96728232  0.99146475    -0.05600
H76         H  0.04713787  0.01650322  0.08135300    -0.05800
C77         C  0.02547773  0.98356470  0.99350872     0.87800
C78         C  0.06073624  0.05127040  0.01270250     0.88400
C79         C  0.04521307  0.01125270  0.06422213     0.88400
H80         H  0.95655081  0.99888837  0.02779859    -0.05800
O81         O  0.97374552  0.03794191  0.99415768    -0.74800
Mg82       Mg  0.02173696  0.97256238  0.04158587     1.58000
H83         H  0.98850415  0.03374321  0.96392242    -0.05800
C84         C  0.07929868  0.00057462  0.95997620     0.93400
O85         O  0.08098243  0.97118704  0.02576318    -0.82000
C86         C  0.07623133  0.95977728  0.04293148     0.93400
O87         O  0.02752042  0.09406944  0.97527206    -0.82000
Mg88       Mg  0.96633069  0.04791522  0.03064860     1.58200
O89         O  0.07690857  0.99255145  0.97946065    -0.80300
O90         O  0.96918974  0.03232593  0.08991876    -0.82000
C91         C  0.10882080  0.27192648  0.91729166     0.80900
N92         N  0.10112520  0.25104393  0.92206158    -0.77400
C93         C  0.10690727  0.23312102  0.90938707     0.83400
N94         N  0.12052438  0.23625849  0.89165262    -0.77300
C95         C  0.12852316  0.25686081  0.88657268     0.83500
N96         N  0.12268174  0.27478792  0.89940295    -0.79000
C97         C  0.90199537  0.09298531  0.27273860     0.80900
N98         N  0.90786137  0.08796984  0.25142357    -0.77400
C99         C  0.89432771  0.09302205  0.23401479     0.83400
N100        N  0.87455205  0.10324580  0.23811738    -0.77300
C101        C  0.86813711  0.10842531  0.25926020     0.83500
N102        N  0.88199713  0.10326649  0.27660382    -0.79000
C103        C  0.26343976  0.91570414  0.09776096     0.80900
N104        N  0.24237244  0.92220770  0.09251279    -0.77400
C105        C  0.22440504  0.91101696  0.10054525     0.83400
N106        N  0.22763843  0.89304968  0.11400715    -0.77300
C107        C  0.24858479  0.88617640  0.11925624     0.83500
N108        N  0.26645100  0.89748269  0.11103891    -0.79000
O109        O  0.97574837  0.55893450  0.44577815    -0.87600
C110        C  0.99786742  0.49433581  0.44671312     0.88400
Mg111      Mg  0.96294049  0.57497514  0.47458975     1.58100
O112        O  0.94580184  0.50158694  0.42051936    -0.87300
O113        O  0.96446293  0.55014894  0.41210214    -0.74700
C114        C  0.89371041  0.50033072  0.51859478     0.93500
O115        O  0.00006467  0.53301303  0.48593546    -0.74500
O116        O  0.90466154  0.51756910  0.52462151    -0.82000
Mg117      Mg  0.00755375  0.54283841  0.44947414     1.58000
C118        C  0.89315081  0.46007936  0.43353108     0.93400
O119        O  0.01774640  0.55351466  0.41368824    -0.80300
H120        H  0.92702755  0.51594929  0.39690470    -0.05600
C121        C  0.94501249  0.48150247  0.48475028     0.88300
O122        O  0.92693442  0.56764320  0.46363354    -0.74800
O123        O  0.99198622  0.51217180  0.43791421    -0.87500
O124        O  0.91289898  0.45945199  0.42547544    -0.80300
C125        C  0.97994787  0.45849584  0.39463025     0.93500
C126        C  0.01756399  0.54460461  0.39431897     0.93400
Mg127      Mg  0.90482858  0.50352548  0.46348568     1.58000
O128        O  0.89439430  0.49303233  0.49862564    -0.80300
O129        O  0.91186900  0.51359156  0.42712812    -0.74500
O130        O  0.98714862  0.47856401  0.39555910    -0.80300
O131        O  0.02468463  0.57458871  0.46339209    -0.82100
O132        O  0.92391708  0.56823984  0.51767082    -0.80400
C133        C  0.92822444  0.51031015  0.41399587     0.87800
O134        O  0.91980760  0.53372307  0.47549385    -0.87500
O135        O  0.93616395  0.48648202  0.46669674    -0.87600
O136        O  0.94688142  0.49556239  0.50066253    -0.74700
Mg137      Mg  0.97566716  0.51381992  0.40607779     1.58000
O138        O  0.96324280  0.45227365  0.40629169    -0.82100
H139        H  0.96055672  0.58097158  0.42576630    -0.05800
O140        O  0.96569006  0.54406737  0.49241490    -0.87300
H141        H  0.98474463  0.53008802  0.51603417    -0.05600
H142        H  0.89683526  0.55251387  0.46010900    -0.05800
C143        C  0.98347812  0.53573707  0.49896557     0.87800
C144        C  0.96693943  0.56420243  0.42783961     0.88400
C145        C  0.91368015  0.55128663  0.46640551     0.88400
H146        H  0.95177874  0.46488860  0.48688953    -0.05800
O147        O  0.98466109  0.47771520  0.44842773    -0.74800
Mg148      Mg  0.93559867  0.53199718  0.50761054     1.58000
H149        H  0.01454965  0.49295319  0.45343360    -0.05800
C150        C  0.01779932  0.58693006  0.47938520     0.93400
O151        O  0.94904848  0.59233074  0.50444381    -0.82000
C152        C  0.93234284  0.58790604  0.51672431     0.93400
O153        O  0.00631403  0.52716137  0.39000117    -0.82000
Mg154      Mg  0.94853062  0.47003982  0.43713269     1.58200
O155        O  0.99750445  0.58648838  0.48565519    -0.80300
O156        O  0.88805759  0.47238854  0.45011060    -0.82000
C157        C  0.70759375  0.41342390  0.37729231     0.80900
N158        N  0.72894084  0.41801225  0.38339081    -0.77400
C159        C  0.74650896  0.40734988  0.37375717     0.83400
N160        N  0.74247796  0.39171754  0.35784183    -0.77300
C161        C  0.72124565  0.38674438  0.35146796     0.83500
N162        N  0.70379410  0.39760037  0.36135697    -0.79000
C163        C  0.06084230  0.60840507  0.20974338     0.80900
N164        N  0.07916812  0.62166929  0.20708752    -0.77400
C165        C  0.08998719  0.63007239  0.22530350     0.83400
N166        N  0.08245957  0.62477543  0.24603064    -0.77300
C167        C  0.06437900  0.61153161  0.24891808     0.83500
N168        N  0.05376762  0.60347208  0.23069662    -0.79000
C169        C  0.87908168  0.77435413  0.57117305     0.80900
N170        N  0.88453386  0.75339780  0.56406707    -0.77400
C171        C  0.87473589  0.73504348  0.57315369     0.83400
N172        N  0.85927397  0.73782507  0.58938665    -0.77300
C173        C  0.85340975  0.75851833  0.59671335     0.83500
N174        N  0.86343887  0.77681189  0.58755938    -0.79000
O175        O  0.97849216  0.95183638  0.45685293    -0.87600
C176        C  0.02986070  0.90889051  0.46285086     0.88400
Mg177      Mg  0.97702087  0.97406551  0.42925440     1.58100
O178        O  0.03331296  0.95513884  0.49918597    -0.87300
O179        O  0.98070240  0.95461003  0.49332470    -0.74700
C180        C  0.07926966  0.01583984  0.41865014     0.93500
O181        O  0.00630602  0.92652869  0.41831499    -0.74500
O182        O  0.06212531  0.01268931  0.40644511    -0.82000
Mg183      Mg  0.98458078  0.91723408  0.44859592     1.58000
C184        C  0.09277888  0.98903971  0.50801333     0.93400
O185        O  0.96195482  0.90395749  0.47721348    -0.80300
H186        H  0.01952336  0.97414496  0.52298795    -0.05600
C187        C  0.07011503  0.95869765  0.44287681     0.88300
O188        O  0.99190625  0.00283579  0.44984144    -0.74800
O189        O  0.01321527  0.91908809  0.46972712    -0.87500
O190        O  0.08507825  0.96915962  0.50960208    -0.80300
C191        C  0.05477643  0.90258367  0.52044590     0.93500
C192        C  0.96440695  0.89846706  0.49769558     0.93400
Mg193      Mg  0.05676386  0.00059195  0.46823283     1.58000
O194        O  0.07941514  0.01115137  0.43943143    -0.80300
O195        O  0.03501368  0.99185910  0.49857429    -0.74500
O196        O  0.03407685  0.90432245  0.51582479    -0.80300
O197        O  0.95548929  0.91484801  0.42392110    -0.82100
O198        O  0.00812882  0.01286373  0.39629310    -0.80400
C199        C  0.02914830  0.97356667  0.50772709     0.87800
O200        O  0.02831402  0.99994973  0.44637195    -0.87500
O201        O  0.06278014  0.96604359  0.46075444    -0.87600
O202        O  0.06129146  0.96375842  0.42425655    -0.74700
Mg203      Mg  0.00835094  0.92999941  0.50348737     1.58000
O204        O  0.06862663  0.91796972  0.51556672    -0.82100
H205        H  0.95758519  0.97093793  0.47463867    -0.05800
O206        O  0.00924418  0.96308889  0.41846427    -0.87300
H207        H  0.02256645  0.94415335  0.39437031    -0.05600
H208        H  0.01380507  0.02517352  0.46287676    -0.05800
C209        C  0.01294228  0.94474544  0.40959464     0.87800
C210        C  0.97144407  0.95933449  0.47480696     0.88400
C211        C  0.01158200  0.01011249  0.45313711     0.88400
H212        H  0.08389380  0.94704905  0.44316844    -0.05800
O213        O  0.04958171  0.91563563  0.46684940    -0.74800
Mg214      Mg  0.03396431  0.98812074  0.41265384     1.58000
H215        H  0.02755845  0.89421402  0.45260462    -0.05800
C216        C  0.95264684  0.92793740  0.40732978     0.93400
O217        O  0.97452944  0.99774822  0.40080894    -0.82000
C218        C  0.98720800  0.01223456  0.39195339     0.93400
O219        O  0.98138546  0.90452828  0.50890300    -0.82000
Mg220      Mg  0.06546680  0.94354710  0.48800153     1.58200
O221        O  0.96038768  0.94776990  0.40741566    -0.80300
O222        O  0.08641650  0.00218952  0.49243977    -0.82000
C223        C  0.10274605  0.70846952  0.55860509     0.80900
N224        N  0.11465132  0.70573255  0.57783727    -0.77400
C225        C  0.12170478  0.72392253  0.58951531     0.83400
N226        N  0.11702037  0.74470945  0.58183166    -0.77300
C227        C  0.10523875  0.74779527  0.56284990     0.83500
N228        N  0.09802599  0.72959856  0.55134112    -0.79000
C229        C  0.27238701  0.05073848  0.37119394     0.80900
N230        N  0.25147728  0.04241702  0.37448318    -0.77400
C231        C  0.23343168  0.05213325  0.36466135     0.83400
N232        N  0.23639830  0.07054825  0.35185638    -0.77300
C233        C  0.25702771  0.07897827  0.34835490     0.83500
N234        N  0.27503664  0.06916165  0.35803425    -0.79000
C235        C  0.91639948  0.88141446  0.21322507     0.80900
N236        N  0.92291651  0.88568838  0.23462506    -0.77400
C237        C  0.91200340  0.87630028  0.25226535     0.83400
N238        N  0.89443347  0.86258446  0.24822027    -0.77300
C239        C  0.88762673  0.85807391  0.22709798     0.83500
N240        N  0.89861450  0.86766751  0.20967451    -0.79000
O241        O  0.47887713  0.44735791  0.95123066    -0.87600
C242        C  0.53256473  0.40740878  0.96039500     0.88400
Mg243      Mg  0.47685779  0.47014624  0.92373670     1.58100
O244        O  0.53071484  0.45380091  0.99672521    -0.87300
O245        O  0.47858263  0.44950671  0.98782136    -0.74700
C246        C  0.57653258  0.51995476  0.91956591     0.93500
O247        O  0.51096303  0.42533814  0.91453903    -0.74500
O248        O  0.56052847  0.51624473  0.90597473    -0.82000
Mg249      Mg  0.48828516  0.41339565  0.94320355     1.58000
C250        C  0.58737117  0.49142589  0.00677949     0.93400
O251        O  0.46532943  0.39728275  0.97026681    -0.80300
H252        H  0.51451839  0.47166302  0.01987741    -0.05600
C253        C  0.56971979  0.46099253  0.94168253     0.88300
O254        O  0.48830927  0.49952408  0.94556949    -0.74800
O255        O  0.51509900  0.41681314  0.96619369    -0.87500
O256        O  0.58100876  0.47115835  0.00886702    -0.80300
C257        C  0.55478560  0.40322924  0.01916994     0.93500
C258        C  0.46658590  0.39212224  0.99097038     0.93400
Mg259      Mg  0.55192006  0.50104657  0.96677647     1.58000
O260        O  0.57534504  0.51399485  0.93992157    -0.80300
O261        O  0.52953831  0.49052589  0.99604451    -0.74500
O262        O  0.53421211  0.40364361  0.01374284    -0.80300
O263        O  0.46112708  0.40927657  0.91689219    -0.82100
O264        O  0.50661848  0.51208378  0.89335121    -0.80400
C265        C  0.52479013  0.47184114  0.00503661     0.87800
O266        O  0.52490147  0.49926122  0.94371881    -0.87500
O267        O  0.56058866  0.46705493  0.95919901    -0.87600
O268        O  0.56202636  0.46641228  0.92266166    -0.74700
Mg269      Mg  0.50737505  0.42705671  0.99965356     1.58000
O270        O  0.56798467  0.41921817  0.01439993    -0.82100
H271        H  0.45544337  0.46433407  0.96796970    -0.05800
O272        O  0.51045730  0.46209516  0.91415590    -0.87300
H273        H  0.52712270  0.44414522  0.89143664    -0.05600
H274        H  0.50795209  0.52311367  0.95993000    -0.05800
C275        C  0.51642378  0.44402679  0.90594873     0.87800
C276        C  0.47015471  0.45388135  0.96882603     0.88400
C277        C  0.50723111  0.50812582  0.94985930     0.88400
H278        H  0.58425174  0.45032359  0.94257303    -0.05800
O279        O  0.55159736  0.41543543  0.96510150    -0.74800
Mg280      Mg  0.53359469  0.48910757  0.91014513     1.58000
H281        H  0.53159970  0.39239835  0.95040501    -0.05800
C282        C  0.45728169  0.42234987  0.90049395     0.93400
O283        O  0.47368231  0.49486490  0.89555142    -0.82000
C284        C  0.48599911  0.51044640  0.88793590     0.93400
O285        O  0.48203466  0.39957959  0.00347626    -0.82000
Mg286      Mg  0.56407556  0.44455401  0.98664766     1.58200
O287        O  0.46319961  0.44282991  0.90082467    -0.80300
O288        O  0.58008040  0.50386523  0.99119733    -0.82000
C289        C  0.42220527  0.37379340  0.70638524     0.80900
N290        N  0.40295193  0.36189067  0.70349011    -0.77400
C291        C  0.39109512  0.35455951  0.72148779     0.83400
N292        N  0.39860925  0.35940133  0.74225410    -0.77300
C293        C  0.41747675  0.37134062  0.74553826     0.83500
N294        N  0.42921608  0.37858227  0.72750903    -0.79000
C295        C  0.59536754  0.21007899  0.06412594     0.80900
N296        N  0.60747238  0.20732186  0.08317048    -0.77400
C297        C  0.61633109  0.22532182  0.09383826     0.83400
N298        N  0.61319132  0.24610774  0.08522785    -0.77300
C299        C  0.60124030  0.24915982  0.06625902     0.83500
N300        N  0.59231579  0.23107494  0.05587058    -0.79000
C301        C  0.77054009  0.56617324  0.88394102     0.80900
N302        N  0.74936435  0.55837496  0.88662500    -0.77400
C303        C  0.73174209  0.56865337  0.87667794     0.83400
N304        N  0.73552515  0.58705955  0.86401985    -0.77300
C305        C  0.75641710  0.59534802  0.86115691     0.83500
N306        N  0.77394893  0.58480599  0.87118443    -0.79000
O307        O  0.95638586  0.49653046  0.03679189    -0.87600
C308        C  0.96333359  0.44153247  0.07520668     0.88400
Mg309      Mg  0.93003468  0.49971149  0.01322534     1.58100
O310        O  0.00210473  0.44487056  0.03121168    -0.87300
O311        O  0.99297800  0.49695867  0.03649764    -0.74700
C312        C  0.92709280  0.40320535  0.95852407     0.93500
O313        O  0.91838023  0.46426092  0.05672610    -0.74500
O314        O  0.91393024  0.41919758  0.96365949    -0.82000
Mg315      Mg  0.94661339  0.48657460  0.07017410     1.58000
C316        C  0.01493134  0.39005211  0.99110228     0.93400
O317        O  0.97291242  0.50945742  0.08706105    -0.80300
H318        H  0.02560165  0.46200808  0.01479497    -0.05600
C319        C  0.94757732  0.40600901  0.01957576     0.88300
O320        O  0.95258363  0.48925507  0.98410745    -0.74800
O321        O  0.96970223  0.45948629  0.06708400    -0.87500
O322        O  0.01601676  0.39532635  0.01181749    -0.80300
C323        C  0.02253258  0.41970471  0.08255729     0.93500
C324        C  0.99324987  0.50818273  0.09338896     0.93400
Mg325      Mg  0.97411888  0.42542275  0.98141689     1.58000
O326        O  0.94736570  0.40273350  0.96518912    -0.80300
O327        O  0.00265475  0.44741693  0.99461021    -0.74500
O328        O  0.01695383  0.44029951  0.08206827    -0.80300
O329        O  0.92008856  0.51392973  0.07416393    -0.82100
O330        O  0.90014160  0.47186765  0.97020827    -0.80400
C331        C  0.01091149  0.45156784  0.01372856     0.87800
O332        O  0.95086569  0.45262447  0.98345302    -0.87500
O333        O  0.96549690  0.41500240  0.01461227    -0.87600
O334        O  0.92891693  0.41435748  0.01378208    -0.74700
Mg335      Mg  0.00362566  0.46756099  0.05873864     1.58000
O336        O  0.01834523  0.40651989  0.06628350    -0.82100
H337        H  0.97380031  0.52045643  0.02126350    -0.05800
O338        O  0.92003441  0.46589389  0.02015340    -0.87300
H339        H  0.89620488  0.44893321  0.03624823    -0.05600
H340        H  0.96755448  0.47014130  0.96041326    -0.05800
C341        C  0.91077026  0.45947355  0.03749549     0.87800
C342        C  0.97421070  0.50546761  0.03137220     0.88400
C343        C  0.95715450  0.47051515  0.97516324     0.88400
H344        H  0.94777036  0.39097660  0.02957814    -0.05800
O345        O  0.96863922  0.42276340  0.06669414    -0.74800
Mg346      Mg  0.91699915  0.44400554  0.99220788     1.58000
H347        H  0.95234097  0.44184489  0.08949276    -0.05800
C348        C  0.90476231  0.51808588  0.06001451     0.93400
O349        O  0.90228581  0.50414483  0.98855936    -0.82000
C350        C  0.89436125  0.49235414  0.97281097     0.93400
O351        O  0.00597877  0.49237073  0.08696471    -0.82000
Mg352      Mg  0.99201232  0.41101111  0.03858558     1.58200
O353        O  0.90680831  0.51258405  0.03965351    -0.80300
O354        O  0.99943713  0.39749765  0.97856209    -0.82000
C355        C  0.71005780  0.56383390  0.09345308     0.80900
N356        N  0.70654568  0.58394219  0.10349982    -0.77400
C357        C  0.72403081  0.59704001  0.10936447     0.83400
N358        N  0.74513535  0.58996559  0.10539354    -0.77300
C359        C  0.74902755  0.56976969  0.09582368     0.83500
N360        N  0.73138309  0.55685091  0.08969857    -0.79000
C361        C  0.06235755  0.37160592  0.27624245     0.80900
N362        N  0.05650117  0.37788537  0.25515023    -0.77400
C363        C  0.06893593  0.37150145  0.23724876     0.83400
N364        N  0.08748434  0.35892598  0.24059610    -0.77300
C365        C  0.09366568  0.35254238  0.26143545     0.83500
N366        N  0.08109252  0.35890234  0.27932557    -0.79000
C367        C  0.87872983  0.21302283  0.91417253     0.80900
N368        N  0.88345326  0.23455487  0.91988884    -0.77400
C369        C  0.87753789  0.25190543  0.90638449     0.83400
N370        N  0.86695042  0.24749983  0.88684213    -0.77300
C371        C  0.86209616  0.22611088  0.88091219     0.83500
N372        N  0.86793420  0.20892120  0.89459988    -0.79000
O373        O  0.44373119  0.02486392  0.00030811    -0.87600
C374        C  0.40352821  0.01765896  0.94617402     0.88400
Mg375      Mg  0.46762974  0.05111034  0.00245221     1.58100
O376        O  0.44764390  0.97848381  0.94784847    -0.87300
O377        O  0.44434937  0.98810826  0.99987167    -0.74700
C378        C  0.51597567  0.05293017  0.90244010     0.93500
O379        O  0.42313803  0.06311404  0.96845796    -0.74500
O380        O  0.51328980  0.06633072  0.91880670    -0.82000
Mg381      Mg  0.41036128  0.03471376  0.99086916     1.58000
C382        C  0.48528581  0.96563006  0.89202557     0.93400
O383        O  0.39337836  0.00850439  0.01399179    -0.80300
H384        H  0.46414716  0.95435347  0.96411095    -0.05600
C385        C  0.45667100  0.03307089  0.90940059     0.88300
O386        O  0.49578587  0.02788147  0.99061397    -0.74800
O387        O  0.41285996  0.01169603  0.96361504    -0.87500
O388        O  0.46472116  0.96455213  0.89773800    -0.80300
C389        C  0.39532475  0.95858129  0.92480458     0.93500
C390        C  0.38688192  0.98823805  0.01199849     0.93400
Mg391      Mg  0.49575871  0.00620616  0.92695623     1.58000
O392        O  0.50929726  0.03273929  0.90338065    -0.80300
O393        O  0.48420721  0.97738835  0.94939834    -0.74500
O394        O  0.39680151  0.96481938  0.94506543    -0.80300
O395        O  0.40758632  0.06098593  0.01825828    -0.82100
O396        O  0.51023260  0.07935535  0.97226502    -0.80400
C397        C  0.46514083  0.96923604  0.95388912     0.87800
O398        O  0.49476201  0.02942073  0.95405428    -0.87500
O399        O  0.46225287  0.01496503  0.91781382    -0.87600
O400        O  0.46287842  0.05173331  0.91751999    -0.74700
Mg401      Mg  0.42113971  0.97765179  0.97130442     1.58000
O402        O  0.41132088  0.96168195  0.91105133    -0.82100
H403        H  0.46021585  0.00689522  0.02316687    -0.05800
O404        O  0.45965517  0.06118443  0.96901137    -0.87300
H405        H  0.44328151  0.08543596  0.95284527    -0.05600
H406        H  0.51823485  0.01227175  0.97054455    -0.05800
C407        C  0.44223614  0.07070661  0.96323845     0.87800
C408        C  0.44957492  0.00678025  0.00859565     0.88400
C409        C  0.50373844  0.02301588  0.97154108     0.88400
H410        H  0.44571172  0.03303493  0.89508728    -0.05800
O411        O  0.41076772  0.01178330  0.92710046    -0.74800
Mg412      Mg  0.48634833  0.06349894  0.94563618     1.58000
H413        H  0.38920480  0.02860547  0.94716152    -0.05800
C414        C  0.42144064  0.07653321  0.02272664     0.93400
O415        O  0.49325981  0.07806176  0.00535522    -0.82000
C416        C  0.50888846  0.08508560  0.99282813     0.93400
O417        O  0.39375280  0.97581606  0.99624927    -0.82000
Mg418      Mg  0.43859195  0.98838282  0.91443324     1.58200
O419        O  0.44183836  0.07535343  0.01683646    -0.80300
O420        O  0.49797778  0.98109158  0.89915634    -0.82000
C421        C  0.56601996  0.09914876  0.71148177     0.80900
N422        N  0.58442463  0.11232529  0.70906835    -0.77400
C423        C  0.59489572  0.12102595  0.72728838     0.83400
N424        N  0.58685583  0.11629675  0.74796619    -0.77300
C425        C  0.56861499  0.10316168  0.75070743     0.83500
N426        N  0.55836928  0.09464167  0.73237911    -0.79000
C427        C  0.37851222  0.27012622  0.06634345     0.80900
N428        N  0.38360986  0.24887731  0.05990854    -0.77400
C429        C  0.37446385  0.23093794  0.07032114     0.83400
N430        N  0.36002944  0.23441602  0.08735622    -0.77300
C431        C  0.35466854  0.25540619  0.09415759     0.83500
N432        N  0.36410347  0.27332622  0.08370369    -0.79000
C433        C  0.20156124  0.92240618  0.87574733     0.80900
N434        N  0.22268145  0.92794119  0.88210902    -0.77400
C435        C  0.24058077  0.91601211  0.87482567     0.83400
N436        N  0.23717852  0.89847206  0.86093597    -0.77300
C437        C  0.21632848  0.89267963  0.85436451     0.83500
N438        N  0.19847308  0.90453393  0.86195833    -0.79000
O439        O  0.53196411  0.53021915  0.47941718    -0.87600
C440        C  0.57216055  0.52303048  0.53278709     0.88400
Mg441      Mg  0.50878362  0.55737851  0.47807795     1.58100
O442        O  0.52769532  0.48478324  0.53146157    -0.87300
O443        O  0.53055966  0.49354510  0.47933694    -0.74700
C444        C  0.45977194  0.55908556  0.57806603     0.93500
O445        O  0.55398277  0.56814504  0.51028757    -0.74500
O446        O  0.46379849  0.57300772  0.56239926    -0.82000
Mg447      Mg  0.56584272  0.53907148  0.48780877     1.58000
C448        C  0.49056346  0.47115428  0.58771766     0.93400
O449        O  0.58224721  0.51210848  0.46488019    -0.80300
H450        H  0.51091550  0.46090378  0.51523202    -0.05600
C451        C  0.51901098  0.53855752  0.57145261     0.88300
O452        O  0.48006649  0.53505530  0.49011836    -0.74800
O453        O  0.56342152  0.51650982  0.51522125    -0.87500
O454        O  0.51099620  0.47040408  0.58150734    -0.80300
C455        C  0.58001691  0.46385501  0.55411708     0.93500
C456        C  0.58779313  0.49147459  0.46618076     0.93400
Mg457      Mg  0.47969910  0.51230946  0.55335777     1.58000
O458        O  0.46578210  0.53866902  0.57679319    -0.80300
O459        O  0.49111646  0.48377472  0.53058549    -0.74500
O460        O  0.57828172  0.46959024  0.53371981    -0.80300
O461        O  0.56838549  0.56421750  0.45964618    -0.82100
O462        O  0.46685506  0.58591105  0.50904671    -0.80400
C463        C  0.51009861  0.47566474  0.52563795     0.87800
O464        O  0.48116218  0.53599542  0.52668751    -0.87500
O465        O  0.51323781  0.52083761  0.56245263    -0.87600
O466        O  0.51363266  0.55754655  0.56349773    -0.74700
Mg467      Mg  0.55392467  0.48260550  0.50766932     1.58000
O468        O  0.56430566  0.46757955  0.56802580    -0.82100
H469        H  0.51481709  0.51306802  0.45647976    -0.05800
O470        O  0.51744747  0.56680016  0.51154754    -0.87300
H471        H  0.53489810  0.59073301  0.52697305    -0.05600
H472        H  0.45717643  0.51989169  0.50998365    -0.05800
C473        C  0.53524912  0.57597757  0.51657481     0.87800
C474        C  0.52560704  0.51245238  0.47093016     0.88400
C475        C  0.47199511  0.53016069  0.50912671     0.88400
H476        H  0.52958816  0.53786901  0.58603282    -0.05800
O477        O  0.56445919  0.51771787  0.55185951    -0.74800
Mg478      Mg  0.49066412  0.56976616  0.53533386     1.58000
H479        H  0.58632418  0.53414802  0.53187719    -0.05800
C480        C  0.55514094  0.58036223  0.45545111     0.93400
O481        O  0.48388192  0.58531729  0.47598930    -0.82000
C482        C  0.46814805  0.59199280  0.48860507     0.93400
O483        O  0.58078945  0.47889552  0.48177980    -0.82000
Mg484      Mg  0.53695216  0.49428938  0.56490616     1.58200
O485        O  0.53512290  0.58058496  0.46273660    -0.80300
O486        O  0.47746844  0.48662577  0.58108574    -0.82000
C487        C  0.60128684  0.76972891  0.40490273     0.80900
N488        N  0.61192452  0.77307757  0.38508219    -0.77400
C489        C  0.61833636  0.75531198  0.37242505     0.83400
N490        N  0.61412236  0.73423486  0.37963464    -0.77300
C491        C  0.60387132  0.73056754  0.39946024     0.83500
N492        N  0.59740089  0.74843014  0.41198694    -0.79000
C493        C  0.40664272  0.59948965  0.76899310     0.80900
N494        N  0.41287935  0.59410150  0.74787974    -0.77400
C495        C  0.40141893  0.60157740  0.72988993     0.83400
N496        N  0.38332401  0.61475359  0.73315991    -0.77300
C497        C  0.37653865  0.62037050  0.75406942     0.83500
N498        N  0.38820844  0.61263012  0.77209200    -0.79000
C499        C  0.77324421  0.41644224  0.59799975     0.80900
N500        N  0.77618705  0.39657189  0.60878078    -0.77400
C501        C  0.75835637  0.38357711  0.61405768     0.83400
N502        N  0.73747409  0.39062604  0.60885036    -0.77300
C503        C  0.73409049  0.41057170  0.59852218     0.83500
N504        N  0.75210672  0.42332837  0.59301908    -0.79000
O505        O  0.45927072  0.99707697  0.53055547    -0.87600
C506        C  0.46699875  0.94262484  0.57068820     0.88400
Mg507      Mg  0.43155620  0.99962747  0.50775266     1.58100
O508        O  0.50458859  0.94381354  0.52557115    -0.87300
O509        O  0.49599209  0.99610069  0.52958589    -0.74700
C510        C  0.42714367  0.89939581  0.45857140     0.93500
O511        O  0.42155463  0.96605932  0.55293631    -0.74500
O512        O  0.41340203  0.91507599  0.46323632    -0.82000
Mg513      Mg  0.45090342  0.98794063  0.56442212     1.58000
C514        C  0.51412693  0.88783511  0.48659266     0.93400
O515        O  0.47827325  0.01054280  0.58030448    -0.80300
H516        H  0.52743592  0.96058065  0.50790129    -0.05600
C517        C  0.44901105  0.90601844  0.51816707     0.88300
O518        O  0.45310019  0.98759285  0.47848193    -0.74800
O519        O  0.47311484  0.96005908  0.56136685    -0.87500
O520        O  0.51652103  0.89319903  0.50713849    -0.80300
C521        C  0.52498353  0.91879548  0.57691379     0.93500
C522        C  0.49846416  0.00838773  0.58687982     0.93400
Mg523      Mg  0.47421817  0.92392067  0.47800523     1.58000
O524        O  0.44756930  0.90059557  0.46427352    -0.80300
O525        O  0.50334708  0.94614178  0.48900328    -0.74500
O526        O  0.51958947  0.93947662  0.57622688    -0.80300
O527        O  0.42553421  0.01605381  0.56814975    -0.82100
O528        O  0.40186430  0.96899816  0.46683313    -0.80400
C529        C  0.51262151  0.95026504  0.50763371     0.87800
O530        O  0.45129858  0.95094911  0.48002661    -0.87500
O531        O  0.46672532  0.91449962  0.51173158    -0.87600
O532        O  0.43012188  0.91424407  0.51302944    -0.74700
Mg533      Mg  0.50697725  0.96700365  0.55247330     1.58000
O534        O  0.52134532  0.90576575  0.56044695    -0.82100
H535        H  0.47731216  0.01947084  0.51350203    -0.05800
O536        O  0.42169267  0.96613571  0.51634734    -0.87300
H537        H  0.39804984  0.95063697  0.53408577    -0.05600
H538        H  0.46703079  0.96705928  0.45534075    -0.05800
C539        C  0.41297521  0.96073762  0.53428339     0.87800
C540        C  0.47736393  0.00497583  0.52430148     0.88400
C541        C  0.45723728  0.96832958  0.47045448     0.88400
H542        H  0.44964198  0.89163476  0.52907270    -0.05800
O543        O  0.47206892  0.92342255  0.56303646    -0.74800
Mg544      Mg  0.41781583  0.94239393  0.49003396     1.58000
H545        H  0.45661753  0.94374826  0.58538217    -0.05800
C546        C  0.40879611  0.01974386  0.55553698     0.93400
O547        O  0.40323681  0.00271853  0.48276762    -0.82000
C548        C  0.39615788  0.98962344  0.46752823     0.93400
O549        O  0.51059354  0.99213163  0.58038422    -0.82000
Mg550      Mg  0.49406780  0.91037187  0.53427081     1.58200
O551        O  0.40868907  0.01379548  0.53508657    -0.80300
O552        O  0.49859740  0.89605090  0.47474587    -0.82000
C553        C  0.38165167  0.70844310  0.40940118     0.80900
N554        N  0.37175025  0.70455857  0.38940793    -0.77400
C555        C  0.36816595  0.72151766  0.37478495     0.83400
N556        N  0.37442085  0.74268793  0.38026016    -0.77300
C557        C  0.38411683  0.74696772  0.40032759     0.83500
N558        N  0.38777612  0.72970805  0.41472403    -0.79000
C559        C  0.21491524  0.05081182  0.60775813     0.80900
N560        N  0.21207757  0.06845655  0.62216507    -0.77400
C561        C  0.23024102  0.07869177  0.63151627     0.83400
N562        N  0.25092426  0.07137516  0.62596132    -0.77300
C563        C  0.25412431  0.05415966  0.61169669     0.83500
N564        N  0.23604058  0.04403294  0.60255434    -0.79000
C565        C  0.55768297  0.87228529  0.77189461     0.80900
N566        N  0.57523224  0.85825657  0.77571972    -0.77400
C567        C  0.58647101  0.84875941  0.75840480     0.83400
N568        N  0.58020398  0.85368064  0.73720649    -0.77300
C569        C  0.56286064  0.86761041  0.73293304     0.83500
N570        N  0.55166987  0.87690859  0.75041317    -0.79000
C571        C  0.25425809  0.25805148  0.72564966     0.80900
N572        N  0.24120526  0.26128867  0.74392099    -0.77400
C573        C  0.22565882  0.24597330  0.74999358     0.83400
N574        N  0.22316046  0.22714523  0.73748708    -0.77300
C575        C  0.23596287  0.22356131  0.71906076     0.83500
N576        N  0.25158976  0.23909382  0.71332502    -0.79000
C577        C  0.24683979  0.12609950  0.67046235    -0.27500
C578        C  0.22752727  0.13928964  0.67113781     0.06100
C579        C  0.20815826  0.13146450  0.66027099     0.25800
C580        C  0.20864128  0.11127364  0.64810910    -0.12000
C581        C  0.22841448  0.09857399  0.64660136    -0.25900
C582        C  0.24736218  0.10608782  0.65855535     0.36600
C583        C  0.22853663  0.16144918  0.68250919     0.06100
F584        F  0.18913297  0.14383374  0.66045360    -0.19700
H585        H  0.19379800  0.10603798  0.63922395     0.16000
F586        F  0.26675343  0.09435053  0.65869894    -0.23400
H587        H  0.26181536  0.13146436  0.67908125     0.17800
C588        C  0.21287902  0.16771363  0.69884999     0.25800
C589        C  0.21521148  0.18803590  0.71032862    -0.11900
C590        C  0.23328333  0.20250704  0.70593236    -0.26000
C591        C  0.24887704  0.19618740  0.68943481     0.36700
C592        C  0.24642628  0.17597379  0.67791381    -0.27600
F593        F  0.19590991  0.15376845  0.70447850    -0.19700
H594        H  0.20295665  0.19224805  0.72296083     0.16000
F595        F  0.26688940  0.20911923  0.68472791    -0.23400
H596        H  0.25877416  0.17149625  0.66544813     0.17800
C597        C  0.56302115  0.86914468  0.66925460    -0.27500
C598        C  0.54785108  0.88647100  0.66489232     0.06100
C599        C  0.53647015  0.89650017  0.68288265     0.25800
C600        C  0.54104055  0.88998228  0.70486807    -0.12000
C601        C  0.55696442  0.87325058  0.70941055    -0.25900
C602        C  0.56760616  0.86256502  0.69118786     0.36600
C603        C  0.54429347  0.89431225  0.64164127     0.06100
F604        F  0.52081431  0.91254767  0.67918508    -0.19700
H605        H  0.53229944  0.89833065  0.71834759     0.16000
F606        F  0.58268818  0.84590038  0.69434711    -0.23400
H607        H  0.57179447  0.86104678  0.65563246     0.17800
C608        C  0.54620232  0.91714743  0.63634065     0.25800
C609        C  0.54115273  0.92475483  0.61487456    -0.11900
C610        C  0.53429175  0.90977175  0.59810389    -0.26000
C611        C  0.53387261  0.88665381  0.60302750     0.36700
C612        C  0.53882987  0.87907220  0.62463297    -0.27600
F613        F  0.55283266  0.93216405  0.65200171    -0.19700
H614        H  0.54201891  0.94257371  0.61157558     0.16000
F615        F  0.52753287  0.87145933  0.58741846    -0.23400
H616        H  0.53759417  0.86134615  0.62830348     0.17800
C617        C  0.36142733  0.03091002  0.59577598    -0.27500
C618        C  0.34455641  0.03821966  0.58117173     0.06100
C619        C  0.35011121  0.04275169  0.55878986     0.25800
C620        C  0.37156555  0.03808141  0.55081766    -0.12000
C621        C  0.38805154  0.02932550  0.56509473    -0.25900
C622        C  0.38301510  0.02667167  0.58793098     0.36600
C623        C  0.32131810  0.04097884  0.58943976     0.06100
F624        F  0.33477456  0.05155048  0.54457309    -0.19700
H625        H  0.37508821  0.04068065  0.53325755     0.16000
F626        F  0.39841774  0.01848541  0.60243667    -0.23400
H627        H  0.35767240  0.02758775  0.61316350     0.17800
C628        C  0.30294521  0.03232705  0.57754643     0.25800
C629        C  0.28113140  0.03595513  0.58520482    -0.11900
C630        C  0.27722245  0.04797708  0.60500174    -0.26000
C631        C  0.29575952  0.05530447  0.61757039     0.36700
C632        C  0.31744823  0.05200637  0.60972950    -0.27600
F633        F  0.30605321  0.02013833  0.55866419    -0.19700
H634        H  0.26730076  0.02974786  0.57535415     0.16000
F635        F  0.29310521  0.06569795  0.63751496    -0.23400
H636        H  0.33128417  0.05844891  0.61943033     0.17800
C637        C  0.38687719  0.81077682  0.40291601    -0.27500
C638        C  0.40177966  0.81401491  0.42068889     0.06100
C639        C  0.41090803  0.79521959  0.43150201     0.25800
C640        C  0.40521914  0.77360874  0.42464054    -0.12000
C641        C  0.39037037  0.77018825  0.40677872    -0.25900
C642        C  0.38129276  0.78910204  0.39586206     0.36600
C643        C  0.40776697  0.83690867  0.42815201     0.06100
F644        F  0.42493928  0.79777209  0.44911703    -0.19700
H645        H  0.41247595  0.75950367  0.43342397     0.16000
F646        F  0.36663127  0.78676977  0.37874281    -0.23400
H647        H  0.37964958  0.82508227  0.39442752     0.17800
C648        C  0.43019964  0.84363989  0.42858721     0.25800
C649        C  0.43609383  0.86432264  0.43768085    -0.11900
C650        C  0.41979808  0.87883634  0.44660879    -0.26000
C651        C  0.39717873  0.87242916  0.44538315     0.36700
C652        C  0.39127520  0.85166407  0.43610752    -0.27600
F653        F  0.44648308  0.83004525  0.42044688    -0.19700
H654        H  0.45362075  0.86876083  0.43813131     0.16000
F655        F  0.38088659  0.88561401  0.45410947    -0.23400
H656        H  0.37388554  0.84669451  0.43594889     0.17800
C657        C  0.57757896  0.82669249  0.42022213    -0.27500
C658        C  0.57238140  0.82372011  0.44291365     0.06100
C659        C  0.57828434  0.80350286  0.45340522     0.25800
C660        C  0.58835782  0.78629844  0.44110179    -0.12000
C661        C  0.59281790  0.78894281  0.41816572    -0.25900
C662        C  0.58768771  0.80956359  0.40792279     0.36600
C663        C  0.55822581  0.84051946  0.45445765     0.06100
F664        F  0.57301491  0.79980945  0.47514812    -0.19700
H665        H  0.59214087  0.77063805  0.44943285     0.16000
F666        F  0.59111901  0.81278946  0.38574008    -0.23400
H667        H  0.57303142  0.84210160  0.41179163     0.17800
C668        C  0.56398117  0.84969810  0.47533111     0.25800
C669        C  0.54964333  0.86503951  0.48589379    -0.11900
C670        C  0.52944084  0.87150722  0.47575133    -0.26000
C671        C  0.52387699  0.86219788  0.45478949     0.36700
C672        C  0.53812384  0.84699154  0.44440199    -0.27600
F673        F  0.58360492  0.84419734  0.48526081    -0.19700
H674        H  0.55443817  0.87199165  0.50188884     0.16000
F675        F  0.50442084  0.86735808  0.44432036    -0.23400
H676        H  0.53320661  0.83989801  0.42849129     0.17800
C677        C  0.44003260  0.59483883  0.62671710    -0.27500
C678        C  0.43233312  0.57827477  0.64146436     0.06100
C679        C  0.43215549  0.55583086  0.63461859     0.25800
C680        C  0.44010618  0.54999477  0.61353773    -0.12000
C681        C  0.44858598  0.56637445  0.59889782    -0.25900
C682        C  0.44823155  0.58899201  0.60559919     0.36600
C683        C  0.42457373  0.58438879  0.66402307     0.06100
F684        F  0.42431200  0.53953728  0.64836134    -0.19700
H685        H  0.44004553  0.53246587  0.60886406     0.16000
F686        F  0.45673641  0.60529952  0.59229630    -0.23400
H687        H  0.44027561  0.61223849  0.63184614     0.17800
C688        C  0.43479730  0.57520000  0.68303213     0.25800
C689        C  0.42708407  0.58081595  0.70428824    -0.11900
C690        C  0.40896496  0.59561512  0.70704557    -0.26000
C691        C  0.39864042  0.60464637  0.68784695     0.36700
C692        C  0.40657353  0.59917161  0.66658408    -0.27600
F693        F  0.45247763  0.56106290  0.68105469    -0.19700
H694        H  0.43540613  0.57351133  0.71859703     0.16000
F695        F  0.38092187  0.61875860  0.68943961    -0.23400
H696        H  0.39844585  0.60623409  0.65202698     0.17800
C697        C  0.43680698  0.62874966  0.44746411    -0.27500
C698        C  0.41941037  0.63721563  0.46061430     0.06100
C699        C  0.41753984  0.63035174  0.48297850     0.25800
C700        C  0.43323888  0.61542930  0.49205211    -0.12000
C701        C  0.45105077  0.60727075  0.47895627    -0.25900
C702        C  0.45248628  0.61405656  0.45639730     0.36600
C703        C  0.40463597  0.65437265  0.45072061     0.06100
F704        F  0.40055515  0.63799743  0.49593370    -0.19700
H705        H  0.43155839  0.61043423  0.50936072     0.16000
F706        F  0.46922703  0.60688935  0.44285138    -0.23400
H707        H  0.43862833  0.63407181  0.43024780     0.17800
C708        C  0.40490153  0.67642450  0.45882529     0.25800
C709        C  0.39621046  0.69384790  0.44584309    -0.11900
C710        C  0.38700566  0.68954284  0.42464433    -0.26000
C711        C  0.38480679  0.66707318  0.41763554     0.36700
C712        C  0.39373154  0.64975926  0.43053253    -0.27600
F713        F  0.41533705  0.68138819  0.47831785    -0.19700
H714        H  0.39775309  0.71084644  0.45194943     0.16000
F715        F  0.37540430  0.66176365  0.39770711    -0.23400
H716        H  0.39331905  0.63279490  0.42411546     0.17800
C717        C  0.60031099  0.66694428  0.40090169    -0.27500
C718        C  0.58600565  0.66364613  0.41910530     0.06100
C719        C  0.57906694  0.68217029  0.43181512     0.25800
C720        C  0.58536842  0.70377990  0.42564497    -0.12000
C721        C  0.59884811  0.70736107  0.40676148    -0.25900
C722        C  0.60673508  0.68857344  0.39470847     0.36600
C723        C  0.57813645  0.64097563  0.42491056     0.06100
F724        F  0.56622118  0.67931933  0.45029370    -0.19700
H725        H  0.57933932  0.71773042  0.43551964     0.16000
F726        F  0.62047484  0.69094636  0.37682370    -0.23400
H727        H  0.60610404  0.65277572  0.39117794     0.17800
C728        C  0.55518913  0.63675595  0.42705764     0.25800
C729        C  0.54781454  0.61648029  0.43588979    -0.11900
C730        C  0.56317491  0.59993749  0.44255752    -0.26000
C731        C  0.58611878  0.60344531  0.43848586     0.36700
C732        C  0.59347905  0.62388689  0.42976084    -0.27600
F733        F  0.53993009  0.65254388  0.42118593    -0.19700
H734        H  0.53003747  0.61407933  0.43821812     0.16000
F735        F  0.60156110  0.58773365  0.44403420    -0.23400
H736        H  0.61123165  0.62678745  0.42783720     0.17800
C737        C  0.62718584  0.44130201  0.59058186    -0.27500
C738        C  0.64444026  0.43906143  0.57479824     0.06100
C739        C  0.63974897  0.44312403  0.55218902     0.25800
C740        C  0.61855432  0.45028647  0.54566938    -0.12000
C741        C  0.60142121  0.45355503  0.56147963    -0.25900
C742        C  0.60585976  0.44855190  0.58406609     0.36600
C743        C  0.66728100  0.43244454  0.58182760     0.06100
F744        F  0.65566975  0.44006347  0.53631751    -0.19700
H745        H  0.61575552  0.45370613  0.52812377     0.16000
F746        F  0.58988958  0.45119845  0.59994711    -0.23400
H747        H  0.63041363  0.43800112  0.60807724     0.17800
C748        C  0.68598934  0.44516473  0.57543849     0.25800
C749        C  0.70755173  0.43808308  0.58105649    -0.11900
C750        C  0.71097548  0.41822401  0.59325649    -0.26000
C751        C  0.69206585  0.40588761  0.60022616     0.36700
C752        C  0.67053191  0.41301226  0.59455716    -0.27600
F753        F  0.68340138  0.46460535  0.56394481    -0.19700
H754        H  0.72158592  0.44815951  0.57568498     0.16000
F755        F  0.69419074  0.38684479  0.61243769    -0.23400
H756        H  0.65633927  0.40304426  0.59973820     0.17800
C757        C  0.52549320  0.06586902  0.67540291    -0.27500
C758        C  0.53575412  0.06695573  0.65441006     0.06100
C759        C  0.55524617  0.07980096  0.65188152     0.25800
C760        C  0.56466383  0.09073194  0.67031396    -0.12000
C761        C  0.55492602  0.08892910  0.69166299    -0.25900
C762        C  0.53491550  0.07659188  0.69385902     0.36600
C763        C  0.52669300  0.05342835  0.63575362     0.06100
F764        F  0.56522955  0.08165920  0.63160625    -0.19700
H765        H  0.57988318  0.10020199  0.66790549     0.16000
F766        F  0.52448067  0.07443552  0.71385055    -0.23400
H767        H  0.51047071  0.05603124  0.67767132     0.17800
C768        C  0.53980931  0.03669274  0.62576607     0.25800
C769        C  0.53063996  0.02257542  0.60957649    -0.11900
C770        C  0.50815311  0.02475692  0.60296781    -0.26000
C771        C  0.49514370  0.04187520  0.61275903     0.36700
C772        C  0.50435658  0.05593172  0.62907124    -0.27600
F773        F  0.56120133  0.03326545  0.63247522    -0.19700
H774        H  0.54112861  0.00955967  0.60256582     0.16000
F775        F  0.47338714  0.04474176  0.60708184    -0.23400
H776        H  0.49395430  0.06865209  0.63673513     0.17800
C777        C  0.33547189  0.93783371  0.92522456    -0.27500
C778        C  0.33080710  0.93654747  0.90237690     0.06100
C779        C  0.34795166  0.94047647  0.88684674     0.25800
C780        C  0.36930472  0.94655874  0.89419935    -0.12000
C781        C  0.37388062  0.94870923  0.91715205    -0.25900
C782        C  0.35678791  0.94361389  0.93263654     0.36600
C783        C  0.30785857  0.93149791  0.89500703     0.06100
F784        F  0.34375673  0.93939702  0.86459532    -0.19700
H785        H  0.38199537  0.95040804  0.88189346     0.16000
F786        F  0.36040683  0.94464417  0.95499773    -0.23400
H787        H  0.32246164  0.93451439  0.93736855     0.17800
C788        C  0.30309563  0.91143013  0.88389584     0.25800
C789        C  0.28121785  0.90656295  0.87747634    -0.11900
C790        C  0.26364675  0.92164899  0.88197594    -0.26000
C791        C  0.26855776  0.94181665  0.89318666     0.36700
C792        C  0.29048090  0.94656962  0.89969656    -0.27600
F793        F  0.31954025  0.89631243  0.87974821    -0.19700
H794        H  0.27806332  0.89081212  0.86909703     0.16000
F795        F  0.25235489  0.95709611  0.89766363    -0.23400
H796        H  0.29397123  0.96213115  0.90831055     0.17800
C797        C  0.54126521  0.89119938  0.83056592    -0.27500
C798        C  0.52325798  0.90559484  0.82605990     0.06100
C799        C  0.51616513  0.90829179  0.80386068     0.25800
C800        C  0.52716566  0.89711710  0.78651786    -0.12000
C801        C  0.54552253  0.88299306  0.79084430    -0.25900
C802        C  0.55224264  0.87988370  0.81325377     0.36600
C803        C  0.51330174  0.91927454  0.84422603     0.06100
F804        F  0.49929819  0.92262763  0.79878123    -0.19700
H805        H  0.52148945  0.89994375  0.76958084     0.16000
F806        F  0.56965619  0.86631121  0.81857227    -0.23400
H807        H  0.54702186  0.88893955  0.84757249     0.17800
C808        C  0.49009718  0.91993295  0.84793685     0.25800
C809        C  0.48103550  0.93452579  0.86392939    -0.11900
C810        C  0.49493786  0.94879328  0.87640940    -0.26000
C811        C  0.51827263  0.94741001  0.87314823     0.36700
C812        C  0.52723096  0.93278039  0.85730713    -0.27600
F813        F  0.47621475  0.90650730  0.83606401    -0.19700
H814        H  0.46309196  0.93502318  0.86615447     0.16000
F815        F  0.53258655  0.96037930  0.88502754    -0.23400
H816        H  0.54514514  0.93251619  0.85474953     0.17800
C817        C  0.53607524  0.05438913  0.84239432    -0.27500
C818        C  0.54031491  0.07723425  0.83933749     0.06100
C819        C  0.53779292  0.09198452  0.85744764     0.25800
C820        C  0.53071875  0.08390145  0.87823465    -0.12000
C821        C  0.52602695  0.06100556  0.88126013    -0.25900
C822        C  0.52909897  0.04625367  0.86306294     0.36600
C823        C  0.54694807  0.08531095  0.81698992     0.06100
F824        F  0.54126153  0.11428933  0.85478264    -0.19700
H825        H  0.52828216  0.09569224  0.89176281     0.16000
F826        F  0.52495011  0.02397560  0.86493486    -0.23400
H827        H  0.53808444  0.04278878  0.82861800     0.17800
C828        C  0.56727752  0.09648428  0.81373250     0.25800
C829        C  0.57401888  0.10254286  0.79220518    -0.11900
C830        C  0.56063711  0.09751877  0.77352021    -0.26000
C831        C  0.54003496  0.08664170  0.77699720     0.36700
C832        C  0.53338178  0.08058231  0.79851441    -0.27600
F833        F  0.58103409  0.10067304  0.83124710    -0.19700
H834        H  0.59000598  0.11075007  0.79017218     0.16000
F835        F  0.52622529  0.08177072  0.75973249    -0.23400
H836        H  0.51760594  0.07200714  0.80078402     0.17800
C837        C  0.42154438  0.13262499  0.05223031    -0.27500
C838        C  0.39969733  0.14007292  0.04810156     0.06100
C839        C  0.38458505  0.12571929  0.03730680     0.25800
C840        C  0.39142226  0.10444220  0.03036295    -0.12000
C841        C  0.41352851  0.09726963  0.03368965    -0.25900
C842        C  0.42847561  0.11144088  0.04509028     0.36600
C843        C  0.39318895  0.16324769  0.05392499     0.06100
F844        F  0.36363969  0.13279636  0.03222403    -0.19700
H845        H  0.37972994  0.09406451  0.02125974     0.16000
F846        F  0.44989419  0.10503056  0.04896761    -0.23400
H847        H  0.43337120  0.14343556  0.06064327     0.17800
C848        C  0.37423796  0.16755600  0.06706071     0.25800
C849        C  0.36815231  0.18958246  0.07206678    -0.11900
C850        C  0.38080169  0.20775573  0.06405044    -0.26000
C851        C  0.39980282  0.20333847  0.05084683     0.36700
C852        C  0.40592058  0.18128053  0.04597581    -0.27600
F853        F  0.36189387  0.15045368  0.07545751    -0.19700
H854        H  0.35350271  0.19236398  0.08231919     0.16000
F855        F  0.41276921  0.22019604  0.04293267    -0.23400
H856        H  0.42055940  0.17824803  0.03576369     0.17800
C857        C  0.92485114  0.34888743  0.92592187    -0.27500
C858        C  0.90216571  0.34327248  0.92778915     0.06100
C859        C  0.88727684  0.35892605  0.93710368     0.25800
C860        C  0.89533063  0.37913928  0.94580114    -0.12000
C861        C  0.91833333  0.38399195  0.94549589    -0.25900
C862        C  0.93291476  0.36902059  0.93461404     0.36600
C863        C  0.89497373  0.32012629  0.92246480     0.06100
F864        F  0.86527390  0.35398328  0.93937391    -0.19700
H865        H  0.88370111  0.39036494  0.95399962     0.16000
F866        F  0.95508608  0.37344892  0.93297432    -0.23400
H867        H  0.93652281  0.33718615  0.91846269     0.17800
C868        C  0.87746122  0.31564242  0.90750609     0.25800
C869        C  0.87174610  0.29343976  0.90246006    -0.11900
C870        C  0.88314937  0.27536281  0.91248057    -0.26000
C871        C  0.90029391  0.28003284  0.92786852     0.36700
C872        C  0.90614465  0.30213560  0.93262823    -0.27600
F873        F  0.86632899  0.33264133  0.89732974    -0.19700
H874        H  0.85839192  0.29040234  0.89065575     0.16000
F875        F  0.91193340  0.26331733  0.93791991    -0.23400
H876        H  0.91953700  0.30525173  0.94437939     0.17800
C877        C  0.85547422  0.53789229  0.09483972    -0.27500
C878        C  0.83955991  0.54163986  0.07800085     0.06100
C879        C  0.84594705  0.53991129  0.05555926     0.25800
C880        C  0.86757790  0.53351166  0.05006205    -0.12000
C881        C  0.88335084  0.52848849  0.06678418    -0.25900
C882        C  0.87724981  0.53126552  0.08933939     0.36600
C883        C  0.81640507  0.54782115  0.08370289     0.06100
F884        F  0.83123372  0.54440636  0.03889059    -0.19700
H885        H  0.87172987  0.53188350  0.03252323     0.16000
F886        F  0.89192113  0.52682896  0.10604054    -0.23400
H887        H  0.85082613  0.53949602  0.11225579     0.17800
C888        C  0.79825812  0.53568205  0.07506557     0.25800
C889        C  0.77641098  0.54276775  0.07921783    -0.11900
C890        C  0.77227223  0.56206241  0.09204569    -0.26000
C891        C  0.79059657  0.57383399  0.10111460     0.36700
C892        C  0.81238387  0.56665894  0.09699104    -0.27600
F893        F  0.80167822  0.51695046  0.06265427    -0.19700
H894        H  0.76275806  0.53323836  0.07215621     0.16000
F895        F  0.78765860  0.59235721  0.11392058    -0.23400
H896        H  0.82620968  0.57618157  0.10373872     0.17800
C897        C  0.04578664  0.40390788  0.18762812    -0.27500
C898        C  0.05169830  0.38987104  0.16969920     0.06100
C899        C  0.06311609  0.36978383  0.17423076     0.25800
C900        C  0.06857152  0.36400799  0.19620792    -0.12000
C901        C  0.06254118  0.37793842  0.21417972    -0.25900
C902        C  0.05098645  0.39798766  0.20967542     0.36600
C903        C  0.04612002  0.39652600  0.14641101     0.06100
F904        F  0.06953120  0.35599755  0.15737906    -0.19700
H905        H  0.07748636  0.34848675  0.19917613     0.16000
F906        F  0.04528996  0.41219241  0.22644463    -0.23400
H907        H  0.03699735  0.41947600  0.18452932     0.17800
C908        C  0.03430625  0.38205898  0.13210510     0.25800
C909        C  0.02795912  0.38918874  0.11071313    -0.11900
C910        C  0.03292919  0.41095805  0.10331344    -0.26000
C911        C  0.04539929  0.42514673  0.11737914     0.36700
C912        C  0.05191247  0.41793996  0.13864876    -0.27600
F913        F  0.02770729  0.36153999  0.13928068    -0.19700
H914        H  0.01804768  0.37809553  0.10041271     0.16000
F915        F  0.05100477  0.44614662  0.11072921    -0.23400
H916        H  0.06123012  0.42926045  0.14926216     0.17800
C917        C  0.80423153  0.52465581  0.91884348    -0.27500
C918        C  0.82547352  0.53444904  0.91879661     0.06100
C919        C  0.82878340  0.55442895  0.90678729     0.25800
C920        C  0.81100750  0.56449770  0.89529897    -0.12000
C921        C  0.78952869  0.55491578  0.89559534    -0.25900
C922        C  0.78643713  0.53469332  0.90749362     0.36600
C923        C  0.84384744  0.52389578  0.93173922     0.06100
F924        F  0.84928911  0.56404963  0.90592018    -0.19700
H925        H  0.81408720  0.57992628  0.88630040     0.16000
F926        F  0.76626343  0.52443854  0.90831069    -0.23400
H927        H  0.80131713  0.50930415  0.92804697     0.17800
C928        C  0.85515112  0.53601354  0.94831415     0.25800
C929        C  0.87177733  0.52571474  0.96109192    -0.11900
C930        C  0.87754769  0.50303154  0.95778368    -0.26000
C931        C  0.86622364  0.49092810  0.94105400     0.36700
C932        C  0.84949791  0.50129562  0.92827709    -0.27600
F933        F  0.84949842  0.55758796  0.95279345    -0.19700
H934        H  0.87987109  0.53554589  0.97394000     0.16000
F935        F  0.87094197  0.46902210  0.93724424    -0.23400
H936        H  0.84085902  0.49163540  0.91565149     0.17800
C937        C  0.56081860  0.17459338  0.02427119    -0.27500
C938        C  0.56492477  0.15296074  0.03233877     0.06100
C939        C  0.57939032  0.15005659  0.05057539     0.25800
C940        C  0.58940984  0.16863420  0.06064839    -0.12000
C941        C  0.58507695  0.19046730  0.05283412    -0.25900
C942        C  0.57059402  0.19319704  0.03441445     0.36600
C943        C  0.55273061  0.13385438  0.02250890     0.06100
F944        F  0.58384176  0.12925865  0.05861126    -0.19700
H945        H  0.60046336  0.16586690  0.07469318     0.16000
F946        F  0.56533150  0.21378502  0.02637643    -0.23400
H947        H  0.54943686  0.17713291  0.01043296     0.17800
C948        C  0.53808454  0.12123389  0.03573549     0.25800
C949        C  0.52461917  0.10490132  0.02599132    -0.11900
C950        C  0.52534355  0.10080026  0.00280999    -0.26000
C951        C  0.54065640  0.11296865  0.98968498     0.36700
C952        C  0.55409804  0.12944709  0.99950396    -0.27600
F953        F  0.53583238  0.12560179  0.05788334    -0.19700
H954        H  0.51308326  0.09590099  0.03664440     0.16000
F955        F  0.54207726  0.10964746  0.96731004    -0.23400
H956        H  0.56527704  0.13914329  0.98907213     0.17800
C957        C  0.34006223  0.32467777  0.69736168    -0.27500
C958        C  0.32914146  0.31789456  0.71701064     0.06100
C959        C  0.33866619  0.32316350  0.73774597     0.25800
C960        C  0.35863097  0.33500964  0.73880156    -0.12000
C961        C  0.36976500  0.34196403  0.71924881    -0.25900
C962        C  0.36013950  0.33675698  0.69839153     0.36600
C963        C  0.30854206  0.30423130  0.71614975     0.06100
F964        F  0.32906758  0.31615884  0.75708232    -0.19700
H965        H  0.36542447  0.33852916  0.75518168     0.16000
F966        F  0.37001115  0.34320903  0.67903241    -0.23400
H967        H  0.33298255  0.32063863  0.68121744     0.17800
C968        C  0.28954362  0.31049380  0.72845372     0.25800
C969        C  0.27157823  0.29576904  0.73055509    -0.11900
C970        C  0.27212355  0.27449500  0.72044151    -0.26000
C971        C  0.29061501  0.26884515  0.70695337     0.36700
C972        C  0.30860479  0.28365047  0.70485693    -0.27600
F973        F  0.28863191  0.33061865  0.73898209    -0.19700
H974        H  0.25745984  0.30084392  0.74068708     0.16000
F975        F  0.29204730  0.24856123  0.69685665    -0.23400
H976        H  0.32313701  0.27852607  0.69534663     0.17800
C977        C  0.48556341  0.41969295  0.62548996    -0.27500
C978        C  0.46385661  0.42233220  0.63403857     0.06100
C979        C  0.45113679  0.44090238  0.62719764     0.25800
C980        C  0.45986292  0.45635995  0.61200867    -0.12000
C981        C  0.48159597  0.45388288  0.60334256    -0.25900
C982        C  0.49437432  0.43521522  0.61021746     0.36600
C983        C  0.45481554  0.40666477  0.65109642     0.06100
F984        F  0.43053800  0.44463516  0.63594495    -0.19700
H985        H  0.44961508  0.47058101  0.60736520     0.16000
F986        F  0.51537747  0.43193476  0.60232148    -0.23400
H987        H  0.49570536  0.40558417  0.63068434     0.17800
C988        C  0.43376531  0.39661810  0.64830947     0.25800
C989        C  0.42374594  0.38495901  0.66596300    -0.11900
C990        C  0.43445513  0.38313094  0.68679904    -0.26000
C991        C  0.45630547  0.39175150  0.68895176     0.36700
C992        C  0.46631112  0.40335622  0.67124111    -0.27600
F993        F  0.42261141  0.39863409  0.62867691    -0.19700
H994        H  0.40714267  0.37821611  0.66356046     0.16000
F995        F  0.46787154  0.38951950  0.70831874    -0.23400
H996        H  0.48265719  0.41071874  0.67365334     0.17800
C997        C  0.62775402  0.53150234  0.03462571    -0.27500
C998        C  0.63725463  0.51792547  0.05114365     0.06100
C999        C  0.63003612  0.49570308  0.05352937     0.25800
C1000       C  0.61346167  0.48723103  0.03938041    -0.12000
C1001       C  0.60407956  0.50075025  0.02250832    -0.25900
C1002       C  0.61149435  0.52307922  0.02032141     0.36600
C1003       C  0.65527009  0.52725510  0.06502325     0.06100
F1004       F  0.63894332  0.48230414  0.06954809    -0.19700
H1005       H  0.60820044  0.47000818  0.04145795     0.16000
F1006       F  0.60344047  0.53681017  0.00412886    -0.23400
H1007       H  0.63337410  0.54861545  0.03246506     0.17800
C1008       C  0.67712021  0.51894646  0.06328285     0.25800
C1009       C  0.69476289  0.53039979  0.07338034    -0.11900
C1010       C  0.69089864  0.55034852  0.08534361    -0.26000
C1011       C  0.66869124  0.55788169  0.08802535     0.36700
C1012       C  0.65115170  0.54645458  0.07781324    -0.27600
F1013       F  0.68157572  0.50064850  0.05057308    -0.19700
H1014       H  0.71155846  0.52406673  0.07104073     0.16000
F1015       F  0.66382624  0.57673836  0.09972776    -0.23400
H1016       H  0.63433568  0.55304110  0.07923260     0.17800
C1017       C  0.63505571  0.54412556  0.92014917    -0.27500
C1018       C  0.64058432  0.54388144  0.89741852     0.06100
C1019       C  0.62426106  0.53768387  0.88173455     0.25800
C1020       C  0.60297067  0.53103356  0.88888408    -0.12000
C1021       C  0.59766535  0.53039960  0.91177096    -0.25900
C1022       C  0.61388267  0.53757949  0.92732981     0.36600
C1023       C  0.66373613  0.54922129  0.89058535     0.06100
F1024       F  0.62928182  0.53689453  0.85964213    -0.19700
H1025       H  0.59098439  0.52543855  0.87656152     0.16000
F1026       F  0.60958107  0.53781511  0.94960376    -0.23400
H1027       H  0.64735667  0.54910647  0.93244580     0.17800
C1028       C  0.66828948  0.56682901  0.87575159     0.25800
C1029       C  0.69039389  0.57262364  0.87086941    -0.11900
C1030       C  0.70842046  0.56096960  0.88065495    -0.26000
C1031       C  0.70367022  0.54280431  0.89494874     0.36700
C1032       C  0.68157497  0.53717344  0.89991078    -0.27600
F1033       F  0.65139943  0.57904733  0.86675879    -0.19700
H1034       H  0.69331963  0.58662326  0.85975359     0.16000
F1035       F  0.72022865  0.53063609  0.90453980    -0.23400
H1036       H  0.67834117  0.52342287  0.91127504     0.17800
C1037       C  0.43182250  0.36087586  0.03376302    -0.27500
C1038       C  0.42305264  0.34335151  0.02091657     0.06100
C1039       C  0.42700300  0.34310919  0.99773146     0.25800
C1040       C  0.44034284  0.35962116  0.98783042    -0.12000
C1041       C  0.45013288  0.37648961  0.00090611    -0.25900
C1042       C  0.44531503  0.37723330  0.02394984     0.36600
C1043       C  0.41104969  0.32474840  0.03208894     0.06100
F1044       F  0.41819754  0.32673191  0.98472686    -0.19700
H1045       H  0.44371879  0.35870285  0.97007754     0.16000
F1046       F  0.45386029  0.39363424  0.03709771    -0.23400
H1047       H  0.42889259  0.36142601  0.05161387     0.17800
C1048       C  0.41839338  0.30257387  0.02938618     0.25800
C1049       C  0.40764578  0.28512292  0.04051870    -0.11900
C1050       C  0.38941263  0.28928470  0.05479877    -0.26000
C1051       C  0.38216935  0.31159491  0.05768091     0.36700
C1052       C  0.39298130  0.32911356  0.04644045    -0.27600
F1053       F  0.43651552  0.29782526  0.01658500    -0.19700
H1054       H  0.41393789  0.26828068  0.03812806     0.16000
F1055       F  0.36458259  0.31655678  0.07111770    -0.23400
H1056       H  0.38719292  0.34614223  0.04886340     0.17800
C1057       C  0.55755953  0.34655850  0.04696207    -0.27500
C1058       C  0.57945847  0.33996491  0.04175966     0.06100
C1059       C  0.59388854  0.35528998  0.03136641     0.25800
C1060       C  0.58614657  0.37658709  0.02551433    -0.12000
C1061       C  0.56384786  0.38276839  0.02962128    -0.25900
C1062       C  0.54975260  0.36774615  0.04096394     0.36600
C1063       C  0.58652168  0.31670935  0.04632510     0.06100
F1064       F  0.61495612  0.34919339  0.02556144    -0.19700
H1065       H  0.59723364  0.38772998  0.01652634     0.16000
F1066       F  0.52827401  0.37328640  0.04574429    -0.23400
H1067       H  0.54631974  0.33503113  0.05525954     0.17800
C1068       C  0.60539806  0.31206317  0.05942612     0.25800
C1069       C  0.61048871  0.28996628  0.06524224    -0.11900
C1070       C  0.59696924  0.27214042  0.05794535    -0.26000
C1071       C  0.57867387  0.27684507  0.04391409     0.36700
C1072       C  0.57350579  0.29893562  0.03831888    -0.27600
F1073       F  0.61826776  0.32892046  0.06748126    -0.19700
H1074       H  0.62478617  0.28686445  0.07588260     0.16000
F1075       F  0.56508096  0.26032994  0.03641036    -0.23400
H1076       H  0.55900960  0.30224439  0.02799911     0.17800
C1077       C  0.45104336  0.56794905  0.80180950    -0.27500
C1078       C  0.44313378  0.56955737  0.82377833     0.06100
C1079       C  0.42413557  0.58293186  0.82798481     0.25800
C1080       C  0.41255310  0.59311752  0.81028127    -0.12000
C1081       C  0.41987835  0.59048797  0.78810345    -0.25900
C1082       C  0.43982654  0.57837331  0.78424414     0.36600
C1083       C  0.45421975  0.55612361  0.84163415     0.06100
F1084       F  0.41677022  0.58620018  0.84917903    -0.19700
H1085       H  0.39764419  0.60273634  0.81393748     0.16000
F1086       F  0.44854051  0.57612353  0.76343099    -0.23400
H1087       H  0.46566635  0.55793386  0.79803782     0.17800
C1088       C  0.44155035  0.54265456  0.85614398     0.25800
C1089       C  0.45211165  0.52842433  0.87137752    -0.11900
C1090       C  0.47556010  0.52690318  0.87241090    -0.26000
C1091       C  0.48830510  0.54037981  0.85791977     0.36700
C1092       C  0.47769660  0.55487003  0.84280137    -0.27600
F1093       F  0.41892934  0.54218774  0.85478270    -0.19700
H1094       H  0.44176934  0.51817015  0.88213034     0.16000
F1095       F  0.51092583  0.53891681  0.85763589    -0.23400
H1096       H  0.48788052  0.56484723  0.83164457     0.17800
C1097       C  0.43303660  0.42004944  0.84222056    -0.27500
C1098       C  0.43620579  0.39741935  0.83672977     0.06100
C1099       C  0.44382188  0.38254624  0.85332752     0.25800
C1100       C  0.44912275  0.39050016  0.87466298    -0.12000
C1101       C  0.44719621  0.41341363  0.87974401    -0.25900
C1102       C  0.43842469  0.42802447  0.86345542     0.36600
C1103       C  0.43241777  0.38988688  0.81342481     0.06100
F1104       F  0.44754889  0.36063189  0.84855031    -0.19700
H1105       H  0.45600593  0.37891362  0.88677678     0.16000
F1106       F  0.43563679  0.45017762  0.86778421    -0.23400
H1107       H  0.42678368  0.43170890  0.82983121     0.17800
C1108       C  0.41901249  0.37119827  0.80874546     0.25800
C1109       C  0.41496560  0.36492394  0.78665567    -0.11900
C1110       C  0.42401273  0.37719362  0.76870839    -0.26000
C1111       C  0.43771045  0.39573271  0.77341290     0.36700
C1112       C  0.44181990  0.40195423  0.79556585    -0.27600
F1113       F  0.40898063  0.35958075  0.82545524    -0.19700
H1114       H  0.40429193  0.35061521  0.78362126     0.16000
F1115       F  0.44638453  0.40843162  0.75673011    -0.23400
H1116       H  0.45223530  0.41641187  0.79880550     0.17800
C1117       C  0.35325920  0.99295689  0.42072325    -0.27500
C1118       C  0.34779985  0.01581448  0.42092120     0.06100
C1119       C  0.35926410  0.03020733  0.43548145     0.25800
C1120       C  0.37534615  0.02165536  0.45012445    -0.12000
C1121       C  0.38040801  0.99860596  0.45050823    -0.25900
C1122       C  0.36948910  0.98438602  0.43519750     0.36600
C1123       C  0.32895687  0.02414720  0.40722176     0.06100
F1124       F  0.35410905  0.05234490  0.43637049    -0.19700
H1125       H  0.38347323  0.03309037  0.46155072     0.16000
F1126       F  0.37389930  0.96208726  0.43458041    -0.23400
H1127       H  0.34462886  0.98164235  0.40953725     0.17800
C1128       C  0.33162812  0.04207227  0.39226919     0.25800
C1129       C  0.31329539  0.05028410  0.38030506    -0.11900
C1130       C  0.29190050  0.04088181  0.38307930    -0.26000
C1131       C  0.28943479  0.02262959  0.39788420     0.36700
C1132       C  0.30781883  0.01438302  0.40967987    -0.27600
F1133       F  0.35198527  0.05153468  0.38911202    -0.19700
H1134       H  0.31588689  0.06422466  0.36902744     0.16000
F1135       F  0.26927407  0.01288711  0.40141036    -0.23400
H1136       H  0.30543711  0.00061098  0.42122831     0.17800
C1137       C  0.91053952  0.88050295  0.31581806    -0.27500
C1138       C  0.92718714  0.89642375  0.31996543     0.06100
C1139       C  0.94003820  0.90437070  0.30191066     0.25800
C1140       C  0.93542362  0.89736301  0.28007505    -0.12000
C1141       C  0.91807413  0.88210883  0.27573377    -0.25900
C1142       C  0.90602142  0.87332428  0.29407283     0.36600
C1143       C  0.93098233  0.90462753  0.34309789     0.06100
F1144       F  0.95722845  0.91875536  0.30537432    -0.19700
H1145       H  0.94532033  0.90415203  0.26653522     0.16000
F1146       F  0.88950531  0.85808082  0.29119005    -0.23400
H1147       H  0.90059200  0.87395192  0.32944939     0.17800
C1148       C  0.93263794  0.92767363  0.34755705     0.25800
C1149       C  0.93806709  0.93514173  0.36896008    -0.11900
C1150       C  0.94184803  0.91986863  0.38649605    -0.26000
C1151       C  0.93831748  0.89689432  0.38246648     0.36700
C1152       C  0.93301766  0.88940931  0.36092807    -0.27600
F1153       F  0.92922902  0.94302704  0.33116817    -0.19700
H1154       H  0.94015911  0.95297341  0.37155071     0.16000
F1155       F  0.94115698  0.88152286  0.39893386    -0.23400
H1156       H  0.93137980  0.87158698  0.35799369     0.17800
C1157       C  0.05623093  0.84464303  0.54619863    -0.27500
C1158       C  0.07852204  0.83847060  0.54235910     0.06100
C1159       C  0.09331928  0.85415581  0.53308380     0.25800
C1160       C  0.08571418  0.87547747  0.52722149    -0.12000
C1161       C  0.06317876  0.88144246  0.53022336    -0.25900
C1162       C  0.04854924  0.86591423  0.54019584     0.36600
C1163       C  0.08589078  0.81532291  0.54704431     0.06100
F1164       F  0.11478546  0.84843522  0.52846984    -0.19700
H1165       H  0.09726637  0.88692625  0.51926656     0.16000
F1166       F  0.02673802  0.87105889  0.54373218    -0.23400
H1167       H  0.04466026  0.83278591  0.55351500     0.17800
C1168       C  0.10439181  0.81111160  0.56079617     0.25800
C1169       C  0.11091291  0.78911325  0.56526160    -0.11900
C1170       C  0.09914921  0.77088114  0.55611038    -0.26000
C1171       C  0.08082537  0.77518924  0.54202270     0.36700
C1172       C  0.07424968  0.79723456  0.53767153    -0.27600
F1173       F  0.11570178  0.82823085  0.57050071    -0.19700
H1174       H  0.12506129  0.78637488  0.57619776     0.16000
F1175       F  0.06876031  0.75821365  0.53304478    -0.23400
H1176       H  0.05998862  0.80022747  0.52694408     0.17800
C1177       C  0.18071093  0.01099852  0.57136677    -0.27500
C1178       C  0.15968301  0.02138481  0.57115360     0.06100
C1179       C  0.15626064  0.04020415  0.58494998     0.25800
C1180       C  0.17395981  0.04927026  0.59742892    -0.12000
C1181       C  0.19545713  0.03970741  0.59656511    -0.25900
C1182       C  0.19835740  0.01989993  0.58388507     0.36600
C1183       C  0.14192863  0.01313631  0.55566349     0.06100
F1184       F  0.13578026  0.04988315  0.58629790    -0.19700
H1185       H  0.17092195  0.06415109  0.60731401     0.16000
F1186       F  0.21834398  0.00915694  0.58317486    -0.23400
H1187       H  0.18372886  0.99631244  0.56117235     0.17800
C1188       C  0.13151486  0.02782062  0.54049165     0.25800
C1189       C  0.11561911  0.01988885  0.52524597    -0.11900
C1190       C  0.10964523  0.99709393  0.52462637    -0.26000
C1191       C  0.12020285  0.98233554  0.53978967     0.36700
C1192       C  0.13619564  0.99031127  0.55499407    -0.27600
F1193       F  0.13733355  0.04977245  0.53980440    -0.19700
H1194       H  0.10805595  0.03169913  0.51377681     0.16000
F1195       F  0.11545036  0.96010859  0.53974064    -0.23400
H1196       H  0.14414802  0.97860106  0.56631150     0.17800
C1197       C  0.12695942  0.02363497  0.37794913    -0.27500
C1198       C  0.14333223  0.03281331  0.39197754     0.06100
C1199       C  0.13761475  0.03873337  0.41396708     0.25800
C1200       C  0.11631688  0.03417473  0.42216393    -0.12000
C1201       C  0.10020967  0.02396552  0.40852672    -0.25900
C1202       C  0.10553690  0.01919005  0.38610733     0.36600
C1203       C  0.16642744  0.03580378  0.38380857     0.06100
F1204       F  0.15268413  0.04878376  0.42759718    -0.19700
H1205       H  0.11256944  0.03818753  0.43941182     0.16000
F1206       F  0.09062018  0.00888407  0.37250335    -0.23400
H1207       H  0.13104459  0.01907251  0.36091651     0.17800
C1208       C  0.18465817  0.02758866  0.39616568     0.25800
C1209       C  0.20646681  0.03195981  0.38922313    -0.11900
C1210       C  0.21049811  0.04457869  0.36985174    -0.26000
C1211       C  0.19218497  0.05155381  0.35672236     0.36700
C1212       C  0.17037874  0.04718332  0.36371989    -0.27600
F1213       F  0.18138243  0.01548231  0.41508031    -0.19700
H1214       H  0.22017126  0.02616126  0.39951985     0.16000
F1215       F  0.19524491  0.06294912  0.33732951    -0.23400
H1216       H  0.15653865  0.05330993  0.35378384     0.17800
C1217       C  0.91818227  0.85588769  0.50731922    -0.27500
C1218       C  0.92103165  0.85129866  0.53011796     0.06100
C1219       C  0.93639688  0.86380374  0.54252853     0.25800
C1220       C  0.94958720  0.87991624  0.53201342    -0.12000
C1221       C  0.94773037  0.88386496  0.50888266    -0.25900
C1222       C  0.93123952  0.87221839  0.49674168     0.36600
C1223       C  0.90986064  0.83189540  0.54041737     0.06100
F1224       F  0.93948554  0.85956044  0.56458957    -0.19700
H1225       H  0.96187998  0.88872860  0.54192824     0.16000
F1226       F  0.92842065  0.87574644  0.47452172    -0.23400
H1227       H  0.90633020  0.84629400  0.49758321     0.17800
C1228       C  0.89093722  0.83455156  0.55396898     0.25800
C1229       C  0.88108866  0.81585254  0.56412447    -0.11900
C1230       C  0.89005938  0.79424045  0.56097991    -0.26000
C1231       C  0.90943784  0.79188152  0.54770937     0.36700
C1232       C  0.91906450  0.81054333  0.53747917    -0.27600
F1233       F  0.88197592  0.85518702  0.55725218    -0.19700
H1234       H  0.86631083  0.81829341  0.57427452     0.16000
F1235       F  0.91944404  0.77166322  0.54485682    -0.23400
H1236       H  0.93396878  0.80838846  0.52742336     0.17800
C1237       C  0.04761384  0.58625158  0.15146432    -0.27500
C1238       C  0.02878992  0.57291486  0.15589943     0.06100
C1239       C  0.02000024  0.57246499  0.17759962     0.25800
C1240       C  0.03003547  0.58481812  0.19456558    -0.12000
C1241       C  0.04933146  0.59768693  0.19050434    -0.25900
C1242       C  0.05782379  0.59860796  0.16855177     0.36600
C1243       C  0.01968325  0.55776593  0.13858564     0.06100
F1244       F  0.00251874  0.55896003  0.18276881    -0.19700
H1245       H  0.02295376  0.58362177  0.21115914     0.16000
F1246       F  0.07636815  0.61069807  0.16366505    -0.23400
H1247       H  0.05470110  0.58667603  0.13481761     0.17800
C1248       C  0.99675145  0.55739406  0.13349872     0.25800
C1249       C  0.98827114  0.54146241  0.11860002    -0.11900
C1250       C  0.00245022  0.52549154  0.10865891    -0.26000
C1251       C  0.02549124  0.52619070  0.11362489     0.36700
C1252       C  0.03392032  0.54225669  0.12828659    -0.27600
F1253       F  0.98255887  0.57238407  0.14299228    -0.19700
H1254       H  0.97052509  0.54144535  0.11511396     0.16000
F1255       F  0.03999434  0.51123318  0.10457390    -0.23400
H1256       H  0.05158746  0.54211997  0.13218714     0.17800
C1257       C  0.61675900  0.44924661  0.42888008    -0.27500
C1258       C  0.63638855  0.46069196  0.42319700     0.06100
C1259       C  0.63903633  0.48306169  0.43013790     0.25800
C1260       C  0.62249782  0.49353512  0.44303066    -0.12000
C1261       C  0.60338342  0.48167913  0.44967533    -0.25900
C1262       C  0.60051005  0.45950041  0.44222326     0.36600
C1263       C  0.65450247  0.44874195  0.41118956     0.06100
F1264       F  0.65780319  0.49461220  0.42479068    -0.19700
H1265       H  0.62513223  0.51054658  0.44873263     0.16000
F1266       F  0.58211681  0.44762136  0.44813603    -0.23400
H1267       H  0.61443180  0.43202154  0.42370056     0.17800
C1268       C  0.67558277  0.44619199  0.42112287     0.25800
C1269       C  0.69257204  0.43465768  0.40997970    -0.11900
C1270       C  0.68891904  0.42519131  0.38876139    -0.26000
C1271       C  0.66764239  0.42746819  0.37894658     0.36700
C1272       C  0.65061190  0.43910893  0.39014579    -0.27600
F1273       F  0.67955967  0.45432657  0.44191563    -0.19700
H1274       H  0.70860538  0.43291860  0.41817054     0.16000
F1275       F  0.66340407  0.41896764  0.35836587    -0.23400
H1276       H  0.63439973  0.44080944  0.38230342     0.17800
C1277       C  0.04091249  0.62768486  0.52232444    -0.27500
C1278       C  0.06089866  0.63452467  0.51237145     0.06100
C1279       C  0.06736550  0.62502182  0.49187428     0.25800
C1280       C  0.05371088  0.60903187  0.48140668    -0.12000
C1281       C  0.03322568  0.60262929  0.49105189    -0.25900
C1282       C  0.02711792  0.61209458  0.51182357     0.36600
C1283       C  0.07386361  0.65268448  0.52301170    -0.05900
F1284       F  0.08675335  0.63134528  0.48196470    -0.19700
H1285       H  0.05887635  0.60211811  0.46549859     0.16000
F1286       F  0.00767484  0.60649845  0.52206161    -0.23400
H1287       H  0.03565479  0.63496223  0.53805591     0.17800
C1288       C  0.07362908  0.67428530  0.51382114     0.25800
C1289       C  0.08350151  0.69211139  0.52525289    -0.11900
C1290       C  0.09376783  0.68883268  0.54617462    -0.26000
C1291       C  0.09426180  0.66696868  0.55519356     0.36700
C1292       C  0.08428958  0.64915265  0.54369577    -0.27600
F1293       F  0.06282982  0.67834913  0.49430510    -0.19700
H1294       H  0.08265564  0.70863448  0.51782964     0.16000
F1295       F  0.10357315  0.66282182  0.57544535    -0.23400
H1296       H  0.08423612  0.63262548  0.55117684     0.17800
C1297       C  0.88380299  0.67195571  0.57229590    -0.27500
C1298       C  0.89444584  0.66911693  0.55166717     0.06100
C1299       C  0.89772393  0.68779292  0.53774607     0.25800
C1300       C  0.89110461  0.70911371  0.54473776    -0.12000
C1301       C  0.88099326  0.71220153  0.56568867    -0.25900
C1302       C  0.87719179  0.69329599  0.57937127     0.36600
C1303       C  0.90395090  0.64713939  0.54546895     0.06100
F1304       F  0.90756482  0.68539114  0.51745023    -0.19700
H1305       H  0.89399239  0.72323858  0.53375270     0.16000
F1306       F  0.86800750  0.69545054  0.59999460    -0.23400
H1307       H  0.88138342  0.65774036  0.58328343     0.17800
C1308       C  0.92711435  0.64498111  0.54287412     0.25800
C1309       C  0.93623570  0.62507058  0.53485514    -0.11900
C1310       C  0.92247249  0.60683213  0.52931517    -0.26000
C1311       C  0.89934697  0.60845751  0.53332856     0.36700
C1312       C  0.89016876  0.62856415  0.54137850    -0.27600
F1313       F  0.94087529  0.66238962  0.54765126    -0.19700
H1314       H  0.95412539  0.62417462  0.53225927     0.16000
F1315       F  0.88551161  0.59126037  0.52810053    -0.23400
H1316       H  0.87225776  0.62995994  0.54352924     0.17800
C1317       C  0.99297863  0.40795760  0.35732336    -0.27500
C1318       C  0.01362645  0.41428643  0.34807833     0.06100
C1319       C  0.02297439  0.43489040  0.35436338     0.25800
C1320       C  0.01203816  0.44877045  0.36964946    -0.12000
C1321       C  0.99142414  0.44258014  0.37913947    -0.25900
C1322       C  0.98200128  0.42184772  0.37284554     0.36600
C1323       C  0.02506151  0.40020536  0.33103301     0.06100
F1324       F  0.04238397  0.44201897  0.34505295    -0.19700
H1325       H  0.01974442  0.46460718  0.37389021     0.16000
F1326       F  0.96199729  0.41520884  0.38119060    -0.23400
H1327       H  0.98536040  0.39224788  0.35248560     0.17800
C1328       C  0.04734884  0.39329148  0.33403430     0.25800
C1329       C  0.05911850  0.38303320  0.31653405    -0.11900
C1330       C  0.04896469  0.37966141  0.29562895    -0.26000
C1331       C  0.02623917  0.38542842  0.29311852     0.36700
C1332       C  0.01444898  0.39549790  0.31069290    -0.27600
F1333       F  0.05789122  0.39699607  0.35375380    -0.19700
H1334       H  0.07648241  0.37861213  0.31906750     0.16000
F1335       F  0.01544736  0.38165865  0.27355076    -0.23400
H1336       H  0.99726556  0.40054903  0.30806836     0.17800
C1337       C  0.04296906  0.55294159  0.33749745    -0.27500
C1338       C  0.04363980  0.57636169  0.33613971     0.06100
C1339       C  0.03829401  0.58925390  0.35503633     0.25800
C1340       C  0.03136596  0.57872294  0.37472525    -0.12000
C1341       C  0.02942915  0.55529229  0.37562177    -0.25900
C1342       C  0.03588763  0.54243966  0.35699378     0.36600
C1343       C  0.04810633  0.58691616  0.31435067     0.06100
F1344       F  0.03821087  0.61196346  0.35394631    -0.19700
H1345       H  0.02613349  0.58893500  0.38874147     0.16000
F1346       F  0.03454387  0.51973041  0.35731167    -0.23400
H1347       H  0.04723356  0.54278102  0.32311356     0.17800
C1348       C  0.06544538  0.60242640  0.31156245     0.25800
C1349       C  0.07015995  0.61099350  0.29035456    -0.11900
C1350       C  0.05768088  0.60419340  0.27160425    -0.26000
C1351       C  0.03977528  0.58919081  0.27473828     0.36700
C1352       C  0.03518657  0.58065158  0.29588651    -0.27600
F1353       F  0.07842661  0.60849547  0.32911743    -0.19700
H1354       H  0.08401439  0.62248395  0.28858030     0.16000
F1355       F  0.02690061  0.58226526  0.25742798    -0.23400
H1356       H  0.02158138  0.56886244  0.29784942     0.17800
C1357       C  0.85919984  0.45463918  0.54531974    -0.27500
C1358       C  0.84786736  0.46638813  0.56214071     0.06100
C1359       C  0.85336932  0.48895160  0.56611556     0.25800
C1360       C  0.86909700  0.49982013  0.55255798    -0.12000
C1361       C  0.87934335  0.48837169  0.53477153    -0.25900
C1362       C  0.87473822  0.46544679  0.53173653     0.36600
C1363       C  0.82931722  0.45515247  0.57408581     0.06100
F1364       F  0.84332434  0.50050662  0.58286721    -0.19700
H1365       H  0.87259455  0.51738353  0.55540826     0.16000
F1366       F  0.88504527  0.45348463  0.51541276    -0.23400
H1367       H  0.85534730  0.43720911  0.54210862     0.17800
C1368       C  0.80752016  0.46382212  0.57301548     0.25800
C1369       C  0.78952370  0.45143454  0.58134984    -0.11900
C1370       C  0.79284088  0.43014752  0.59097324    -0.26000
C1371       C  0.81490380  0.42191150  0.59275207     0.36700
C1372       C  0.83283539  0.43427938  0.58426530    -0.27600
F1373       F  0.80344539  0.48366451  0.56269193    -0.19700
H1374       H  0.77287533  0.45834832  0.57971170     0.16000
F1375       F  0.81925319  0.40157303  0.60191494    -0.23400
H1376       H  0.84951877  0.42727672  0.58512206     0.17800
C1377       C  0.85095271  0.43911040  0.39147302    -0.27500
C1378       C  0.83576113  0.42796112  0.40549813     0.06100
C1379       C  0.84136008  0.42475830  0.42809803     0.25800
C1380       C  0.86069574  0.43439479  0.43690075    -0.12000
C1381       C  0.87517055  0.44674530  0.42321162    -0.25900
C1382       C  0.87059023  0.44840118  0.40022908     0.36600
C1383       C  0.81313213  0.42205017  0.39726031     0.06100
F1384       F  0.82767585  0.41297500  0.44183759    -0.19700
H1385       H  0.86407516  0.43275559  0.45460435     0.16000
F1386       F  0.88408358  0.46057852  0.38665242    -0.23400
H1387       H  0.84696767  0.44177314  0.37402463     0.17800
C1388       C  0.79415681  0.43010867  0.40853499     0.25800
C1389       C  0.77278999  0.42521279  0.40072597    -0.11900
C1390       C  0.76965540  0.41222450  0.38140525    -0.26000
C1391       C  0.78871295  0.40422586  0.36995463     0.36700
C1392       C  0.81022310  0.40925608  0.37779938    -0.27600
F1393       F  0.79625695  0.44336167  0.42682988    -0.19700
H1394       H  0.75863677  0.43172672  0.40994598     0.16000
F1395       F  0.78670419  0.39181792  0.35107866    -0.23400
H1396       H  0.82463438  0.40307185  0.36874321     0.17800
C1397       C  0.34704759  0.94756797  0.03965482    -0.27500
C1398       C  0.33706794  0.96101324  0.05593071     0.06100
C1399       C  0.34409441  0.98326678  0.05863330     0.25800
C1400       C  0.36079703  0.99201185  0.04474888    -0.12000
C1401       C  0.37047734  0.97867944  0.02791349    -0.25900
C1402       C  0.36350024  0.95618300  0.02572780     0.36600
C1403       C  0.31863523  0.95152606  0.06906085     0.06100
F1404       F  0.33478273  0.99644570  0.07460297    -0.19700
H1405       H  0.36582679  0.00929279  0.04689689     0.16000
F1406       F  0.37214309  0.94243533  0.00985449    -0.23400
H1407       H  0.34163877  0.93040399  0.03736373     0.17800
C1408       C  0.29667164  0.95871873  0.06534447     0.25800
C1409       C  0.27889880  0.94722342  0.07508803    -0.11900
C1410       C  0.28271333  0.92829360  0.08864413    -0.26000
C1411       C  0.30490917  0.92151180  0.09274325     0.36700
C1412       C  0.32263898  0.93304337  0.08292050    -0.27600
F1413       F  0.29235981  0.97603846  0.05127542    -0.19700
H1414       H  0.26209309  0.95290878  0.07151455     0.16000
F1415       F  0.30960835  0.90341252  0.10564249    -0.23400
H1416       H  0.33955624  0.92716067  0.08559254     0.17800
C1417       C  0.94322892  0.04359913  0.35874069    -0.27500
C1418       C  0.95610784  0.05623722  0.34385646     0.06100
C1419       C  0.97957584  0.05545161  0.34564953     0.25800
C1420       C  0.98979556  0.04164091  0.36169818    -0.12000
C1421       C  0.97678550  0.02837969  0.37612347    -0.25900
C1422       C  0.95327520  0.02987276  0.37461950     0.36600
C1423       C  0.94447835  0.06872223  0.32580529     0.06100
F1424       F  0.99258629  0.06796979  0.33191498    -0.19700
H1425       H  0.00785173  0.04095343  0.36249185     0.16000
F1426       F  0.93972915  0.01780035  0.38824894    -0.23400
H1427       H  0.92516954  0.04376386  0.35760547     0.17800
C1428       C  0.95004088  0.06505221  0.30332116     0.25800
C1429       C  0.93659504  0.07375080  0.28634579    -0.11900
C1430       C  0.91709937  0.08609193  0.29128434    -0.26000
C1431       C  0.91206552  0.09055254  0.31383896     0.36700
C1432       C  0.92566100  0.08194490  0.33083874    -0.27600
F1433       F  0.96752249  0.05169090  0.29768270    -0.19700
H1434       H  0.94110695  0.06996861  0.26924091     0.16000
F1435       F  0.89371313  0.10259757  0.31961800    -0.23400
H1436       H  0.92105521  0.08498127  0.34807606     0.17800
C1437       C  0.19696521  0.27306639  0.79998729    -0.27500
C1438       C  0.18608198  0.25460825  0.80956569     0.06100
C1439       C  0.18892235  0.23332476  0.79984575     0.25800
C1440       C  0.20168082  0.23076252  0.78051450    -0.12000
C1441       C  0.21224722  0.24923920  0.77058756    -0.25900
C1442       C  0.21003259  0.27046851  0.78075022     0.36600
C1443       C  0.17083873  0.25753721  0.82890416     0.06100
F1444       F  0.17949998  0.21488372  0.80917923    -0.19700
H1445       H  0.20342482  0.21416179  0.77342658     0.16000
F1446       F  0.21993235  0.28886274  0.77185084    -0.23400
H1447       H  0.19488372  0.28962940  0.80707149     0.17800
C1448       C  0.17732415  0.26923020  0.84830178     0.25800
C1449       C  0.16297128  0.27021749  0.86683978    -0.11900
C1450       C  0.14224436  0.25928554  0.86629706    -0.26000
C1451       C  0.13553519  0.24836164  0.84664308     0.36700
C1452       C  0.14956084  0.24778579  0.82811540    -0.27600
F1453       F  0.19791266  0.27858925  0.84978339    -0.19700
H1454       H  0.16849356  0.27848044  0.88195872     0.16000
F1455       F  0.11545810  0.23788426  0.84547105    -0.23400
H1456       H  0.14393718  0.23923769  0.81319044     0.17800
C1457       C  0.04559809  0.35270487  0.94948573    -0.27500
C1458       C  0.06303301  0.34406482  0.96246773     0.06100
C1459       C  0.06520052  0.35112698  0.98475437     0.25800
C1460       C  0.04982344  0.36634945  0.99394325    -0.12000
C1461       C  0.03190374  0.37465357  0.98110877    -0.25900
C1462       C  0.03014007  0.36769568  0.95859593     0.36600
C1463       C  0.07765822  0.32645951  0.95288382     0.06100
F1464       F  0.08215931  0.34325318  0.99759524    -0.19700
H1465       H  0.05180630  0.37141040  0.01119444     0.16000
F1466       F  0.01319212  0.37488321  0.94534341    -0.23400
H1467       H  0.04354584  0.34725895  0.93234543     0.17800
C1468       C  0.07674860  0.30452156  0.96121749     0.25800
C1469       C  0.08789976  0.28718651  0.95016067    -0.11900
C1470       C  0.10020890  0.29127415  0.93049499    -0.26000
C1471       C  0.10210724  0.31355688  0.92287932     0.36700
C1472       C  0.09069509  0.33088932  0.93388024    -0.27600
F1473       F  0.06386699  0.29959247  0.97922520    -0.19700
H1474       H  0.08616026  0.27033919  0.95664270     0.16000
F1475       F  0.11402109  0.31854543  0.90424702    -0.23400
H1476       H  0.09152086  0.34773846  0.92721045     0.17800
C1477       C  0.14230513  0.94090364  0.89045044    -0.27500
C1478       C  0.14660367  0.95956169  0.90395770     0.06100
C1479       C  0.16866022  0.96673890  0.90695730     0.25800
C1480       C  0.18626434  0.95496798  0.89715266    -0.12000
C1481       C  0.18227465  0.93563244  0.88429608    -0.25900
C1482       C  0.15993559  0.92899183  0.88061097     0.36600
C1483       C  0.12859191  0.96962378  0.91742302     0.06100
F1484       F  0.17319820  0.98472830  0.92004459    -0.19700
H1485       H  0.20311546  0.96077254  0.90016482     0.16000
F1486       F  0.15503867  0.91058922  0.86825876    -0.23400
H1487       H  0.12532984  0.93505566  0.88825513     0.17800
C1488       C  0.11364693  0.98539775  0.90849110     0.25800
C1489       C  0.09741709  0.99538300  0.92222504    -0.11900
C1490       C  0.09583444  0.98958515  0.94497611    -0.26000
C1491       C  0.11091376  0.97350826  0.95364089     0.36700
C1492       C  0.12704031  0.96377163  0.93995965    -0.27600
F1493       F  0.11508300  0.99143269  0.88668561    -0.19700
H1494       H  0.08619790  0.00770639  0.91510557     0.16000
F1495       F  0.11062419  0.96748102  0.97551615    -0.23400
H1496       H  0.13859142  0.95171498  0.94705186     0.17800
C1497       C  0.16131317  0.91490154  0.09697040    -0.27500
C1498       C  0.15867733  0.92862063  0.07817773     0.06100
C1499       C  0.17761567  0.93762058  0.06763675     0.25800
C1500       C  0.19888882  0.93213970  0.07530405    -0.12000
C1501       C  0.20166969  0.91770686  0.09366430    -0.25900
C1502       C  0.18259466  0.90941810  0.10470425     0.36600
C1503       C  0.13613871  0.93357887  0.06972350     0.06100
F1504       F  0.17555287  0.95188216  0.05007184    -0.19700
H1505       H  0.21319256  0.93897772  0.06658407     0.16000
F1506       F  0.18437575  0.89605552  0.12295949    -0.23400
H1507       H  0.14683254  0.90810354  0.10543421     0.17800
C1508       C  0.13091439  0.93005721  0.04713646     0.25800
C1509       C  0.11029503  0.93688348  0.03883206    -0.11900
C1510       C  0.09457737  0.94710338  0.05294821    -0.26000
C1511       C  0.09921466  0.94931989  0.07580656     0.36700
C1512       C  0.11992557  0.94255242  0.08412597    -0.27600
F1513       F  0.14597254  0.92061087  0.03300710    -0.19700
H1514       H  0.10698758  0.93520597  0.02111465     0.16000
F1515       F  0.08465990  0.95996187  0.08960007    -0.23400
H1516       H  0.12375123  0.94537606  0.10158032     0.17800
C1517       C  0.91162947  0.13381177  0.98706043    -0.27500
C1518       C  0.91829821  0.14131161  0.96580713     0.06100
C1519       C  0.93799649  0.13269470  0.95640287     0.25800
C1520       C  0.95061444  0.11677574  0.96787632    -0.12000
C1521       C  0.94399642  0.10896926  0.98905315    -0.25900
C1522       C  0.92426769  0.11765645  0.99858875     0.36600
C1523       C  0.90545167  0.15876104  0.95365230     0.06100
F1524       F  0.94546924  0.14022595  0.93634554    -0.19700
H1525       H  0.96575564  0.11060114  0.96009210     0.16000
F1526       F  0.91753591  0.11108110  0.01922001    -0.23400
H1527       H  0.89662367  0.14047778  0.99469771     0.17800
C1528       C  0.89838509  0.15514361  0.93155211     0.25800
C1529       C  0.88899732  0.17262641  0.91913107    -0.11900
C1530       C  0.88656143  0.19413954  0.92840421    -0.26000
C1531       C  0.89270591  0.19743844  0.95092160     0.36700
C1532       C  0.90194702  0.17984741  0.96338772    -0.27600
F1533       F  0.90098518  0.13476645  0.92182157    -0.19700
H1534       H  0.88433776  0.16945159  0.90194834     0.16000
F1535       F  0.89009914  0.21769631  0.96087723    -0.23400
H1536       H  0.90722448  0.18294970  0.98040937     0.17800
C1537       C  0.08637632  0.12950949  0.94087287    -0.27500
C1538       C  0.07228509  0.14574442  0.93141950     0.06100
C1539       C  0.04928477  0.14172186  0.92996422     0.25800
C1540       C  0.04030646  0.12225500  0.93908414    -0.12000
C1541       C  0.05415957  0.10649671  0.94962198    -0.25900
C1542       C  0.07737467  0.10990348  0.94998546     0.36600
C1543       C  0.08113009  0.16789060  0.92547799     0.06100
F1544       F  0.03544711  0.15711310  0.92059622    -0.19700
H1545       H  0.02237417  0.11985682  0.93869754     0.16000
F1546       F  0.09103388  0.09531379  0.96078181    -0.23400
H1547       H  0.10414224  0.13261235  0.94227514     0.17800
C1548       C  0.07602656  0.18644842  0.93889474     0.25800
C1549       C  0.08445337  0.20752416  0.93353465    -0.11900
C1550       C  0.09797575  0.21053746  0.91456014    -0.26000
C1551       C  0.10267907  0.19181091  0.90085739     0.36700
C1552       C  0.09445500  0.17064219  0.90649235    -0.27600
F1553       F  0.06309350  0.18407517  0.95737957    -0.19700
H1554       H  0.08038881  0.22147356  0.94436405     0.16000
F1555       F  0.11503170  0.19381016  0.88194652    -0.23400
H1556       H  0.09827042  0.15641429  0.89591975     0.17800
C1557       C  0.95660668  0.91682480  0.17840346    -0.27500
C1558       C  0.94877507  0.91297582  0.15667765     0.06100
C1559       C  0.93046521  0.89870429  0.15354076     0.25800
C1560       C  0.92023270  0.88838887  0.17191929    -0.12000
C1561       C  0.92797029  0.89216333  0.19385611    -0.25900
C1562       C  0.94644339  0.90655269  0.19682867     0.36600
C1563       C  0.95890562  0.92516616  0.13764572     0.06100
F1564       F  0.92204716  0.89530682  0.13277515    -0.19700
H1565       H  0.90600672  0.87763361  0.16890950     0.16000
F1566       F  0.95466743  0.91099016  0.21747062    -0.23400
H1567       H  0.97057264  0.92801806  0.18109732     0.17800
C1568       C  0.95480293  0.94811415  0.13506481     0.25800
C1569       C  0.96509264  0.96007451  0.11788487    -0.11900
C1570       C  0.97999622  0.94955635  0.10289249    -0.26000
C1571       C  0.98388259  0.92636998  0.10535205     0.36700
C1572       C  0.97326933  0.91430069  0.12253850    -0.27600
F1573       F  0.94087185  0.95901920  0.14930290    -0.19700
H1574       H  0.96158523  0.97783544  0.11664658     0.16000
F1575       F  0.99806169  0.91540961  0.09143720    -0.23400
H1576       H  0.97661429  0.89655961  0.12437057     0.17800
C1577       C  0.92566337  0.08346308  0.12869596    -0.27500
C1578       C  0.92116480  0.06718081  0.14503651     0.06100
C1579       C  0.92518215  0.04453450  0.14033612     0.25800
C1580       C  0.93495333  0.03845660  0.12016260    -0.12000
C1581       C  0.94102853  0.05482576  0.10438936    -0.25900
C1582       C  0.93564839  0.07735881  0.10842860     0.36600
C1583       C  0.91417104  0.07395218  0.16761299     0.06100
F1584       F  0.92046579  0.02839824  0.15562488    -0.19700
H1585       H  0.93870292  0.02092480  0.11726576     0.16000
F1586       F  0.94166281  0.09356269  0.09372081    -0.23400
H1587       H  0.92262930  0.10100890  0.13218361     0.17800
C1588       C  0.92760323  0.06866835  0.18608680     0.25800
C1589       C  0.92107404  0.07507443  0.20748807    -0.11900
C1590       C  0.90099974  0.08685578  0.21094845    -0.26000
C1591       C  0.88765543  0.09228565  0.19225245     0.36700
C1592       C  0.89431406  0.08591774  0.17079460    -0.27600
F1593       F  0.94727287  0.05763694  0.18336894    -0.19700
H1594       H  0.93183261  0.07071144  0.22136067     0.16000
F1595       F  0.86821572  0.10374283  0.19450587    -0.23400
H1596       H  0.88386652  0.09014613  0.15663445     0.17800
C1597       C  0.17586785  0.70518566  0.68513801    -0.27500
C1598       C  0.17140362  0.72387774  0.67161028     0.06100
C1599       C  0.17980278  0.74497965  0.67788510     0.25800
C1600       C  0.19191023  0.74737121  0.69758362    -0.12000
C1601       C  0.19643421  0.72872359  0.71102679    -0.25900
C1602       C  0.18849580  0.70752366  0.70463989     0.36600
C1603       C  0.15740621  0.72177456  0.65138444     0.06100
F1604       F  0.17674521  0.76322820  0.66467987    -0.19700
H1605       H  0.19832343  0.76373590  0.70202688     0.16000
F1606       F  0.19248819  0.68923597  0.71752576    -0.23400
H1607       H  0.16932839  0.68886488  0.68076058     0.17800
C1608       C  0.16171356  0.70547188  0.63491404     0.25800
C1609       C  0.14938604  0.70541966  0.61499888    -0.11900
C1610       C  0.13293557  0.72177834  0.61127916    -0.26000
C1611       C  0.12807655  0.73736959  0.62821650     0.36700
C1612       C  0.14001845  0.73714229  0.64808777    -0.27600
F1613       F  0.17852631  0.69042563  0.63755686    -0.19700
H1614       H  0.15336671  0.69331350  0.60212035     0.16000
F1615       F  0.11183487  0.75304356  0.62552261    -0.23400
H1616       H  0.13598003  0.74940299  0.66081018     0.17800
C1617       C  0.23023602  0.79699495  0.80710692    -0.27500
C1618       C  0.21301346  0.81213624  0.80233587     0.06100
C1619       C  0.19808911  0.80754177  0.78494863     0.25800
C1620       C  0.20071261  0.78812916  0.77216279    -0.12000
C1621       C  0.21826179  0.77296861  0.77655994    -0.25900
C1622       C  0.23284593  0.77752037  0.79449351     0.36600
C1623       C  0.21213064  0.83357946  0.81434994     0.06100
F1624       F  0.18157184  0.82226418  0.77980221    -0.19700
H1625       H  0.18916967  0.78521470  0.75856161     0.16000
F1626       F  0.24991751  0.76351351  0.79971900    -0.23400
H1627       H  0.24192698  0.80049489  0.82046163     0.17800
C1628       C  0.19537609  0.83813322  0.83014434     0.25800
C1629       C  0.19606700  0.85802163  0.84254890    -0.11900
C1630       C  0.21358121  0.87333570  0.83936776    -0.26000
C1631       C  0.22976742  0.86902600  0.82286918     0.36700
C1632       C  0.22903163  0.84927357  0.81055639    -0.27600
F1633       F  0.17904615  0.82292854  0.83423526    -0.19700
H1634       H  0.18354600  0.86098328  0.85528143     0.16000
F1635       F  0.24643476  0.88386224  0.81875343    -0.23400
H1636       H  0.24189687  0.84600735  0.79823616     0.17800
C1637       C  0.32397182  0.64856404  0.77641767    -0.27500
C1638       C  0.31857638  0.66268084  0.75846295     0.06100
C1639       C  0.33259518  0.66341783  0.73974189     0.25800
C1640       C  0.35154496  0.64990472  0.73880232    -0.12000
C1641       C  0.35693110  0.63533887  0.75649542    -0.25900
C1642       C  0.34299362  0.63484870  0.77545386     0.36600
C1643       C  0.29797929  0.67617766  0.75868394     0.06100
F1644       F  0.32789684  0.67724251  0.72233659    -0.19700
H1645       H  0.36201905  0.65082484  0.72407355     0.16000
F1646       F  0.34715255  0.62050879  0.79254588    -0.23400
H1647       H  0.31313148  0.64776767  0.79088727     0.17800
C1648       C  0.28084282  0.67148429  0.74346597     0.25800
C1649       C  0.26226919  0.68550675  0.74207515    -0.11900
C1650       C  0.26048158  0.70465591  0.75568126    -0.26000
C1651       C  0.27758042  0.70903168  0.77131363     0.36700
C1652       C  0.29609736  0.69477262  0.77281367    -0.27600
F1653       F  0.28227654  0.65348277  0.72968503    -0.19700
H1654       H  0.24946730  0.68150076  0.72995735     0.16000
F1655       F  0.27692471  0.72738794  0.78463928    -0.23400
H1656       H  0.30936339  0.69865924  0.78447339     0.17800
C1657       C  0.67833094  0.19064513  0.70708153    -0.27500
C1658       C  0.67649086  0.17243082  0.72169932     0.06100
C1659       C  0.69447044  0.16705244  0.73575543     0.25800
C1660       C  0.71371735  0.18026140  0.73569147    -0.12000
C1661       C  0.71536628  0.19914355  0.72167771    -0.25900
C1662       C  0.69750128  0.20396920  0.70703831     0.36600
C1663       C  0.65542635  0.15967844  0.72281858     0.06100
F1664       F  0.69335938  0.14905578  0.74958535    -0.19700
H1665       H  0.72719505  0.17584916  0.74692323     0.16000
F1666       F  0.69808973  0.22191903  0.69313885    -0.23400
H1667       H  0.66457493  0.19494912  0.69613507     0.17800
C1668       C  0.64282327  0.15942610  0.74256706     0.25800
C1669       C  0.62300920  0.14719457  0.74366216    -0.11900
C1670       C  0.61532269  0.13495659  0.72508716    -0.26000
C1671       C  0.62779388  0.13570772  0.70510404     0.36700
C1672       C  0.64763154  0.14804687  0.70404565    -0.27600
F1673       F  0.64953729  0.17129439  0.76069943    -0.19700
H1674       H  0.61370814  0.14729403  0.75918291     0.16000
F1675       F  0.62125078  0.12411665  0.68675862    -0.23400
H1676       H  0.65715117  0.14824116  0.68865342     0.17800
C1677       C  0.79939861  0.20130985  0.79205594    -0.27500
C1678       C  0.81104651  0.22020768  0.79974457     0.06100
C1679       C  0.80865227  0.24058683  0.78811531     0.25800
C1680       C  0.79502399  0.24192876  0.76925887    -0.12000
C1681       C  0.78306733  0.22317598  0.76174956    -0.25900
C1682       C  0.78540608  0.20274995  0.77337089     0.36600
C1683       C  0.82531432  0.21895259  0.82004276     0.06100
F1684       F  0.81880139  0.25951923  0.79545850    -0.19700
H1685       H  0.79333119  0.25794361  0.76091596     0.16000
F1686       F  0.77439484  0.18408730  0.76661923    -0.23400
H1687       H  0.80118063  0.18535366  0.80048481     0.17800
C1688       C  0.81756103  0.20887243  0.83989514     0.25800
C1689       C  0.83025713  0.21014258  0.85949086    -0.11900
C1690       C  0.85053292  0.22183984  0.85968804    -0.26000
C1691       C  0.85878132  0.23097665  0.83973706     0.36700
C1692       C  0.84642998  0.22922132  0.82005427    -0.27600
F1693       F  0.79715295  0.19905092  0.84077267    -0.19700
H1694       H  0.82368040  0.20306407  0.87480388     0.16000
F1695       F  0.87868767  0.24182424  0.83936023    -0.23400
H1696       H  0.85312670  0.23646754  0.80487955     0.17800
C1697       C  0.77938346  0.29440200  0.67761591    -0.27500
C1698       C  0.76030586  0.30273132  0.66673792     0.06100
C1699       C  0.73971263  0.29192210  0.67022807     0.25800
C1700       C  0.73833671  0.27329854  0.68431415    -0.12000
C1701       C  0.75732707  0.26518356  0.69551800    -0.25900
C1702       C  0.77795291  0.27594626  0.69198101     0.36600
C1703       C  0.76178227  0.32292987  0.65224015     0.06100
F1704       F  0.72070710  0.29983081  0.66068281    -0.19700
H1705       H  0.72219113  0.26555329  0.68686967     0.16000
F1706       F  0.79683502  0.26849318  0.70209606    -0.23400
H1707       H  0.79549187  0.30217796  0.67493638     0.17800
C1708       C  0.77286011  0.34240078  0.65958288     0.25800
C1709       C  0.77276891  0.36180455  0.64644618    -0.11900
C1710       C  0.76127190  0.36226188  0.62607221    -0.26000
C1711       C  0.75082067  0.34270594  0.61835261     0.36700
C1712       C  0.75129385  0.32316923  0.63123076    -0.27600
F1713       F  0.78266001  0.34311269  0.68000337    -0.19700
H1714       H  0.78069742  0.37683598  0.65272192     0.16000
F1715       F  0.74006550  0.34256516  0.59839438    -0.23400
H1716       H  0.74312591  0.30828378  0.62493403     0.17800
C1717       C  0.66923883  0.19832605  0.18835596    -0.27500
C1718       C  0.66875840  0.21743748  0.17456617     0.06100
C1719       C  0.68129071  0.23635942  0.18085793     0.25800
C1720       C  0.69262826  0.23669552  0.20112160    -0.12000
C1721       C  0.69258923  0.21792517  0.21514105    -0.25900
C1722       C  0.68140890  0.19840943  0.20835594     0.36600
C1723       C  0.65439705  0.21836531  0.15435086     0.06100
F1724       F  0.68271475  0.25458083  0.16735345    -0.19700
H1725       H  0.70174385  0.25164918  0.20577278     0.16000
F1726       F  0.68145178  0.17985301  0.22146656    -0.23400
H1727       H  0.65968596  0.18357727  0.18402299     0.17800
C1728       C  0.65330110  0.20054664  0.13896811     0.25800
C1729       C  0.64043593  0.20263492  0.11953210    -0.11900
C1730       C  0.62880515  0.22258508  0.11495592    -0.26000
C1731       C  0.62944124  0.24008993  0.13066036     0.36700
C1732       C  0.64178403  0.23778515  0.15020954    -0.27600
F1733       F  0.66526631  0.18149798  0.14221597    -0.19700
H1734       H  0.64014314  0.18890560  0.10771371     0.16000
F1735       F  0.61792299  0.25941960  0.12735103    -0.23400
H1736       H  0.64155735  0.25140514  0.16215310     0.17800
C1737       C  0.76611457  0.15222292  0.26046004    -0.27500
C1738       C  0.78612337  0.15921860  0.27055122     0.06100
C1739       C  0.78713056  0.18091896  0.27973386     0.25800
C1740       C  0.76883585  0.19544894  0.27795155    -0.12000
C1741       C  0.74940481  0.18890705  0.26651869    -0.25900
C1742       C  0.74804477  0.16687970  0.25823582     0.36600
C1743       C  0.80639746  0.14481369  0.26883466     0.06100
F1744       F  0.80630980  0.18879917  0.28885354    -0.19700
H1745       H  0.77045598  0.21233756  0.28433994     0.16000
F1746       F  0.72950358  0.15960684  0.24741866    -0.23400
H1747       H  0.76474236  0.13553324  0.25350537     0.17800
C1748       C  0.82124515  0.14165050  0.28682116     0.25800
C1749       C  0.84108932  0.12946028  0.28382891    -0.11900
C1750       C  0.84635279  0.11990862  0.26298526    -0.26000
C1751       C  0.83076136  0.12206412  0.24543951     0.36700
C1752       C  0.81130266  0.13454753  0.24832965    -0.27600
F1753       F  0.81651387  0.15008594  0.30732898    -0.19700
H1754       H  0.85245931  0.12776686  0.29778801     0.16000
F1755       F  0.83414837  0.11221946  0.22529934    -0.23400
H1756       H  0.80021131  0.13657635  0.23418201     0.17800
C1757       C  0.73020059  0.29046891  0.30495919    -0.27500
C1758       C  0.71271515  0.30550515  0.30039281     0.06100
C1759       C  0.69568688  0.29895284  0.28568114     0.25800
C1760       C  0.69647007  0.27787385  0.27547579    -0.12000
C1761       C  0.71421133  0.26289458  0.27971711    -0.25900
C1762       C  0.73099709  0.26939659  0.29483940     0.36600
C1763       C  0.71307349  0.32809178  0.31070189     0.06100
F1764       F  0.67879415  0.31321648  0.28047365    -0.19700
H1765       H  0.68327292  0.27343341  0.26394563     0.16000
F1766       F  0.74860589  0.25580594  0.29938997    -0.23400
H1767       H  0.74344192  0.29516878  0.31634727     0.17800
C1768       C  0.69506315  0.33616874  0.32350446     0.25800
C1769       C  0.69725364  0.35606897  0.33574773    -0.11900
C1770       C  0.71741336  0.36816032  0.33543679    -0.26000
C1771       C  0.73470317  0.36088221  0.32118594     0.36700
C1772       C  0.73253190  0.34102890  0.30910909    -0.27600
F1773       F  0.67595711  0.32411144  0.32539583    -0.19700
H1774       H  0.68360397  0.36131817  0.34641701     0.16000
F1775       F  0.75399662  0.37262495  0.31926467    -0.23400
H1776       H  0.74639049  0.33537501  0.29890796     0.17800
C1777       C  0.31493729  0.24137819  0.14110224    -0.27500
C1778       C  0.31752603  0.25986813  0.15516693     0.06100
C1779       C  0.33054743  0.27810114  0.14817969     0.25800
C1780       C  0.34187628  0.27718234  0.12770051    -0.12000
C1781       C  0.34014258  0.25812107  0.11399142    -0.25900
C1782       C  0.32588408  0.24053625  0.12060651     0.36600
C1783       C  0.30611449  0.25971845  0.17690498     0.06100
F1784       F  0.33285614  0.29636220  0.16146795    -0.19700
H1785       H  0.35263465  0.29096574  0.12299293     0.16000
F1786       F  0.32259217  0.22237257  0.10737844    -0.23400
H1787       H  0.30442748  0.22748518  0.14610211     0.17800
C1788       C  0.28636261  0.27192031  0.17984494     0.25800
C1789       C  0.27343415  0.26870075  0.19896515    -0.11900
C1790       C  0.27990828  0.25309753  0.21539123    -0.26000
C1791       C  0.30046755  0.24181158  0.21292828     0.36700
C1792       C  0.31334182  0.24503675  0.19370784    -0.27600
F1793       F  0.27884444  0.28580854  0.16353641    -0.19700
H1794       H  0.25775655  0.27766492  0.20030891     0.16000
F1795       F  0.30792026  0.22730474  0.22872622    -0.23400
H1796       H  0.32861316  0.23551551  0.19155016     0.17800
C1797       C  0.27336263  0.16772633  0.28450109    -0.27500
C1798       C  0.25475373  0.15952908  0.29613483     0.06100
C1799       C  0.23457895  0.17162075  0.29534053     0.25800
C1800       C  0.23340264  0.19191621  0.28381860    -0.12000
C1801       C  0.25216654  0.20045035  0.27255474    -0.25900
C1802       C  0.27211110  0.18784275  0.27264893     0.36600
C1803       C  0.25671084  0.13893200  0.30979528     0.06100
F1804       F  0.21590803  0.16372017  0.30552015    -0.19700
H1805       H  0.21767164  0.20089437  0.28365332     0.16000
F1806       F  0.29064989  0.19509949  0.26182823    -0.23400
H1807       H  0.28912088  0.15880990  0.28502868     0.17800
C1808       C  0.26679227  0.11936929  0.30124764     0.25800
C1809       C  0.26808272  0.10002875  0.31438368    -0.11900
C1810       C  0.25907514  0.09993066  0.33595134    -0.26000
C1811       C  0.24935847  0.11944457  0.34464446     0.36700
C1812       C  0.24845121  0.13885282  0.33175729    -0.27600
F1813       F  0.27441066  0.11861510  0.27990689    -0.19700
H1814       H  0.27518922  0.08486904  0.30739872     0.16000
F1815       F  0.24043205  0.11956813  0.36550438    -0.23400
H1816       H  0.24108867  0.15381380  0.33889156     0.17800
C1817       C  0.18213580  0.29362310  0.24007284    -0.27500
C1818       C  0.17318155  0.29780916  0.26136851     0.06100
C1819       C  0.18320611  0.28764541  0.28009007     0.25800
C1820       C  0.20184868  0.27365655  0.27740409    -0.12000
C1821       C  0.21100150  0.26998519  0.25611466    -0.25900
C1822       C  0.20095507  0.28009281  0.23744558     0.36600
C1823       C  0.15346242  0.31280963  0.26358135     0.06100
F1824       F  0.17542433  0.29176351  0.30098350    -0.19700
H1825       H  0.20945089  0.26609644  0.29199610     0.16000
F1826       F  0.20894552  0.27639097  0.21653342    -0.23400
H1827       H  0.17442689  0.30077135  0.22533492     0.17800
C1828       C  0.15287120  0.33340034  0.25214917     0.25800
C1829       C  0.13353349  0.34645461  0.25225603    -0.11900
C1830       C  0.11450626  0.33956904  0.26406556    -0.26000
C1831       C  0.11524333  0.31946452  0.27627159     0.36700
C1832       C  0.13458674  0.30614633  0.27592872    -0.27600
F1833       F  0.17096979  0.34085265  0.24068518    -0.19700
H1834       H  0.13330891  0.36194426  0.24281250     0.16000
F1835       F  0.09688507  0.31202581  0.28729587    -0.23400
H1836       H  0.13451165  0.29021574  0.28459260     0.17800
C1837       C  0.70697246  0.64071308  0.15138969    -0.27500
C1838       C  0.71822892  0.65971961  0.14324451     0.06100
C1839       C  0.72968990  0.65822562  0.12273790     0.25800
C1840       C  0.73107044  0.63779974  0.11151574    -0.12000
C1841       C  0.72041123  0.61878533  0.12008292    -0.25900
C1842       C  0.70780486  0.62044517  0.13975010     0.36600
C1843       C  0.71968919  0.68027690  0.15710285     0.06100
F1844       F  0.73981159  0.67642557  0.11368253    -0.19700
H1845       H  0.74065175  0.63674576  0.09618942     0.16000
F1846       F  0.69759769  0.60212494  0.14846571    -0.23400
H1847       H  0.69837161  0.64122989  0.16729280     0.17800
C1848       C  0.70097479  0.68877582  0.16854710     0.25800
C1849       C  0.70325108  0.70707571  0.18292561    -0.11900
C1850       C  0.72409845  0.71747653  0.18592853    -0.26000
C1851       C  0.74266846  0.70931709  0.17402334     0.36700
C1852       C  0.74046169  0.69080546  0.15999659    -0.27600
F1853       F  0.68047258  0.67950932  0.16577333    -0.19700
H1854       H  0.68862683  0.71313478  0.19171812     0.16000
F1855       F  0.76321590  0.71851601  0.17661780    -0.23400
H1856       H  0.75527487  0.68426665  0.15189986     0.17800
C1857       C  0.78895416  0.81191391  0.23112940    -0.27500
C1858       C  0.80571798  0.80805991  0.21521985     0.06100
C1859       C  0.80213451  0.79199362  0.19848268     0.25800
C1860       C  0.78244347  0.77935929  0.19834116    -0.12000
C1861       C  0.76590375  0.78257592  0.21481142    -0.25900
C1862       C  0.76919236  0.79951881  0.23090730     0.36600
C1863       C  0.82734766  0.81987705  0.21732654     0.06100
F1864       F  0.81811391  0.78773427  0.18295582    -0.19700
H1865       H  0.78047734  0.76661017  0.18563837     0.16000
F1866       F  0.75363001  0.80392335  0.24680785    -0.23400
H1867       H  0.79135180  0.82441247  0.24402124     0.17800
C1868       C  0.83592492  0.83317546  0.19996140     0.25800
C1869       C  0.85585574  0.84508269  0.20297638    -0.11900
C1870       C  0.86754802  0.84394715  0.22334678    -0.26000
C1871       C  0.85917289  0.82999108  0.24042440     0.36700
C1872       C  0.83926661  0.81825156  0.23740457    -0.27600
F1873       F  0.82458568  0.83537598  0.18046224    -0.19700
H1874       H  0.86178149  0.85569961  0.18955852     0.16000
F1875       F  0.87016173  0.82752575  0.26008879    -0.23400
H1876       H  0.83305848  0.80783175  0.25086446     0.17800
C1877       C  0.67545834  0.73780245  0.28187009    -0.27500
C1878       C  0.66952487  0.75869806  0.29097199     0.06100
C1879       C  0.67824102  0.77827684  0.28115145     0.25800
C1880       C  0.69276564  0.77681835  0.26289180    -0.12000
C1881       C  0.69837826  0.75592672  0.25369481    -0.25900
C1882       C  0.68940229  0.73638630  0.26324023     0.36600
C1883       C  0.65486110  0.75968570  0.31102345     0.06100
F1884       F  0.67240227  0.79884322  0.28886402    -0.19700
H1885       H  0.69935533  0.79208671  0.25568142     0.16000
F1886       F  0.69472853  0.71582379  0.25512353    -0.23400
H1887       H  0.66961270  0.72240982  0.28943193     0.17800
C1888       C  0.63621541  0.74544630  0.31297116     0.25800
C1889       C  0.62407335  0.74462640  0.33284265    -0.11900
C1890       C  0.62976963  0.75842365  0.35089990    -0.26000
C1891       C  0.64752399  0.77356856  0.34865982     0.36700
C1892       C  0.66014683  0.77394548  0.32898525    -0.27600
F1893       F  0.62974864  0.73219913  0.29572930    -0.19700
H1894       H  0.61024540  0.73301691  0.33421257     0.16000
F1895       F  0.65356306  0.78692639  0.36596628    -0.23400
H1896       H  0.67460024  0.78478304  0.32817889     0.17800
C1897       C  0.27544793  0.79989407  0.18392985    -0.27500
C1898       C  0.25612627  0.80626896  0.17229741     0.06100
C1899       C  0.23744062  0.79214306  0.17244955     0.25800
C1900       C  0.23790859  0.77219569  0.18444930    -0.12000
C1901       C  0.25695051  0.76592187  0.19670246    -0.25900
C1902       C  0.27588758  0.77994069  0.19620529     0.36600
C1903       C  0.25536021  0.82756701  0.15987334     0.06100
F1904       F  0.21873554  0.79756457  0.16081913    -0.19700
H1905       H  0.22306335  0.76186092  0.18441224     0.16000
F1906       F  0.29477559  0.77448924  0.20750728    -0.23400
H1907       H  0.29004380  0.81059282  0.18380886     0.17800
C1908       C  0.23839183  0.84326090  0.16418825     0.25800
C1909       C  0.23649798  0.86243376  0.15103400    -0.11900
C1910       C  0.25166707  0.86642280  0.13361700    -0.26000
C1911       C  0.26904685  0.85103860  0.12969053     0.36700
C1912       C  0.27085599  0.83174403  0.14280188    -0.27600
F1913       F  0.22362963  0.83998644  0.18109923    -0.19700
H1914       H  0.22313079  0.87420080  0.15445236     0.16000
F1915       F  0.28352245  0.85403607  0.11249412    -0.23400
H1916       H  0.28389376  0.81967781  0.13916874     0.17800
C1917       C  0.19142616  0.66966537  0.23313268    -0.27500
C1918       C  0.17479976  0.67605198  0.21780224     0.06100
C1919       C  0.17927905  0.69353042  0.20275880     0.25800
C1920       C  0.19977974  0.70460003  0.20343992    -0.12000
C1921       C  0.21611670  0.69888364  0.21941788    -0.25900
C1922       C  0.21179983  0.68098360  0.23410570     0.36600
C1923       C  0.15243552  0.66544873  0.21898202     0.06100
F1924       F  0.16341927  0.70090275  0.18831832    -0.19700
H1925       H  0.20242348  0.71832272  0.19190891     0.16000
F1926       F  0.22684375  0.67476168  0.24988895    -0.23400
H1927       H  0.18840936  0.65612815  0.24480102     0.17800
C1928       C  0.14126542  0.65759067  0.19984046     0.25800
C1929       C  0.12060779  0.64677759  0.20186479    -0.11900
C1930       C  0.11082422  0.64339157  0.22297378    -0.26000
C1931       C  0.12189073  0.65185795  0.24201356     0.36700
C1932       C  0.14230808  0.66276336  0.23991146    -0.27600
F1933       F  0.15071079  0.65941053  0.17931128    -0.19700
H1934       H  0.11261694  0.64048036  0.18691783     0.16000
F1935       F  0.11336623  0.64937748  0.26287937    -0.23400
H1936       H  0.15037276  0.66901802  0.25485218     0.17800
C1937       C  0.31038338  0.73691606  0.28662784    -0.27500
C1938       C  0.31520180  0.71560421  0.29527719     0.06100
C1939       C  0.30421383  0.69682712  0.28627761     0.25800
C1940       C  0.28911566  0.69948106  0.26858899    -0.12000
C1941       C  0.28484664  0.72082136  0.25957919    -0.25900
C1942       C  0.29552012  0.73956498  0.26896882     0.36600
C1943       C  0.33088149  0.71375295  0.31435006     0.06100
F1944       F  0.30833454  0.67594394  0.29426855    -0.19700
H1945       H  0.28099427  0.68481656  0.26173514     0.16000
F1946       F  0.29109012  0.76063336  0.26164549    -0.23400
H1947       H  0.31789401  0.75172985  0.29385472     0.17800
C1948       C  0.35091909  0.72609291  0.31444698     0.25800
C1949       C  0.36337017  0.72810287  0.33404433    -0.11900
C1950       C  0.35650642  0.71719803  0.35359795    -0.26000
C1951       C  0.33762444  0.70323435  0.35301202     0.36700
C1952       C  0.32475708  0.70179084  0.33359878    -0.27600
F1953       F  0.35810250  0.73672994  0.29572807    -0.19700
H1954       H  0.37820416  0.73847028  0.33405729     0.16000
F1955       F  0.33067627  0.69231179  0.37164905    -0.23400
H1956       H  0.30936279  0.69230919  0.33403028     0.17800
C1957       C  0.77892786  0.77452123  0.67886713    -0.27500
C1958       C  0.79813465  0.76148067  0.67555741     0.06100
C1959       C  0.80581999  0.74767243  0.69292992     0.25800
C1960       C  0.79399189  0.74625075  0.71291411    -0.12000
C1961       C  0.77424835  0.75861622  0.71614639    -0.25900
C1962       C  0.76697978  0.77312057  0.69894488     0.36600
C1963       C  0.80989578  0.76155948  0.65385075     0.06100
F1964       F  0.82485292  0.73550306  0.69055751    -0.19700
H1965       H  0.80029471  0.73519272  0.72580071     0.16000
F1966       F  0.74812585  0.78556731  0.70116324    -0.23400
H1967       H  0.77285100  0.78532577  0.66565169     0.17800
C1968       C  0.81371609  0.74129568  0.64264269     0.25800
C1969       C  0.82711826  0.74076897  0.62366598    -0.11900
C1970       C  0.83704678  0.76042931  0.61530155    -0.26000
C1971       C  0.83192423  0.78103037  0.62568384     0.36700
C1972       C  0.81842513  0.78150635  0.64483845    -0.27600
F1973       F  0.80478323  0.72186237  0.65032138    -0.19700
H1974       H  0.83012494  0.72467735  0.61588007     0.16000
F1975       F  0.84043667  0.80058311  0.61788990    -0.23400
H1976       H  0.81535149  0.79732943  0.65314769     0.17800
C1977       C  0.75710385  0.69768706  0.82129105    -0.27500
C1978       C  0.76714741  0.67841349  0.81232125     0.06100
C1979       C  0.77584305  0.67913478  0.79054241     0.25800
C1980       C  0.77322709  0.69844173  0.77755127    -0.12000
C1981       C  0.76164189  0.71715612  0.78597077    -0.25900
C1982       C  0.75430589  0.71688715  0.80829277     0.36600
C1983       C  0.76521693  0.65697906  0.82455305     0.06100
F1984       F  0.78518051  0.66064482  0.78119706    -0.19700
H1985       H  0.77906720  0.69820281  0.76042621     0.16000
F1986       F  0.74382065  0.73488832  0.81738614    -0.23400
H1987       H  0.75046635  0.69747290  0.83813108     0.17800
C1988       C  0.78380037  0.64342152  0.82945659     0.25800
C1989       C  0.78096836  0.62332215  0.84131329    -0.11900
C1990       C  0.75955312  0.61635694  0.84816562    -0.26000
C1991       C  0.74102051  0.62997962  0.84277129     0.36700
C1992       C  0.74394439  0.64997345  0.83122326    -0.27600
F1993       F  0.80463717  0.64983308  0.82324490    -0.19700
H1994       H  0.79552199  0.61323097  0.84512043     0.16000
F1995       F  0.71993817  0.62438313  0.84892639    -0.23400
H1996       H  0.72939156  0.66006762  0.82734409     0.17800
C1997       C  0.68489222  0.80802243  0.75469509    -0.27500
C1998       C  0.66817833  0.79910146  0.76841737     0.06100
C1999       C  0.67239374  0.77946925  0.78057520     0.25800
C2000       C  0.69302399  0.76858554  0.77842463    -0.12000
C2001       C  0.70958195  0.77706998  0.76397388    -0.25900
C2002       C  0.70540190  0.79721400  0.75245050     0.36600
C2003       C  0.64579719  0.80926830  0.76763482     0.06100
F2004       F  0.65622377  0.77026001  0.79354334    -0.19700
H2005       H  0.69570181  0.75307277  0.78742873     0.16000
F2006       F  0.72096005  0.80642732  0.73877165    -0.23400
H2007       H  0.68177071  0.82316732  0.74519963     0.17800
C2008       C  0.63711144  0.82163684  0.78558942     0.25800
C2009       C  0.61729422  0.83390753  0.78288179    -0.11900
C2010       C  0.60598213  0.83389648  0.76224708    -0.26000
C2011       C  0.61428002  0.82034855  0.74480688     0.36700
C2012       C  0.63400063  0.80833203  0.74752863    -0.27600
F2013       F  0.64834474  0.82273881  0.80524080    -0.19700
H2014       H  0.61129585  0.84405235  0.79663178     0.16000
F2015       F  0.60362544  0.81884903  0.72488770    -0.23400
H2016       H  0.64047476  0.79867617  0.73362286     0.17800
loop_ 
_geom_bond_atom_site_label_1 
_geom_bond_atom_site_label_2 
_geom_bond_distance 
_geom_bond_site_symmetry_2 
_ccdc_geom_bond_type 
C1            N2   1.358       .  A
C1            N6   1.359       .  A
C1         C2001   1.482       .  S
N2            C3   1.358       .  A
C3            N4   1.356       .  A
C3         C1981   1.479       .  S
N4            C5   1.359       .  A
C5            N6   1.357       .  A
C5         C1961   1.486       .  S
C7            N8   1.355       .  A
C7           N12   1.354       .  A
C7         C1901   1.480       .  S
N8            C9   1.359       .  A
C9           N10   1.361       .  A
C9         C1941   1.478       .  S
N10          C11   1.361       .  A
C11          N12   1.355       .  A
C11        C1921   1.485       .  S
C13          N14   1.358       .  A
C13          N18   1.356       .  A
C13        C1881   1.477       .  S
N14          C15   1.360       .  A
C15          N16   1.360       .  A
C15        C1861   1.490       .  S
N16          C17   1.360       .  A
C17          N18   1.357       .  A
C17        C1850   1.480       .  S
C19          N20   1.357       .  A
C19          N24   1.355       .  A
C19        C1821   1.475       .  S
N20          C21   1.361       .  A
C21          N22   1.360       .  A
C21        C1801   1.483       .  S
N22          C23   1.358       .  A
C23          N24   1.356       .  A
C23        C1790   1.482       .  S
C25          N26   1.355       .  A
C25          N30   1.355       .  A
C25        C1721   1.470       .  S
N26          C27   1.360       .  A
C27          N28   1.363       .  A
C27        C1741   1.484       .  S
N28          C29   1.362       .  A
C29          N30   1.356       .  A
C29        C1761   1.487       .  S
C31          N32   1.358       .  A
C31          N36   1.359       .  A
C31        C1701   1.485       .  S
N32          C33   1.358       .  A
C33          N34   1.359       .  A
C33        C1661   1.487       .  S
N34          C35   1.358       .  A
C35          N36   1.360       .  A
C35        C1681   1.484       .  S
C37          N38   1.353       .  A
C37          N42   1.356       .  A
C37        C1601   1.467       .  S
N38          C39   1.357       .  A
C39          N40   1.359       .  A
C39        C1650   1.485       .  S
N40          C41   1.361       .  A
C41          N42   1.358       .  A
C41        C1621   1.486       .  S
O43         Mg45   2.116       .  S
O43         Mg51   2.139   1_554  S
O43          C78   1.237       .  S
C44          O57   1.237   1_655  S
C44          O81   1.272       .  A
C44          H83   1.079       .  S
Mg45         O74   2.143   1_545  S
Mg45         O89   2.263   1_544  S
Mg45         O85   2.206   1_545  S
Mg45         O56   2.292       .  S
O46         Mg88   2.150       .  S
O46         Mg71   2.120   1_655  S
O46          C67   1.235   1_655  S
O47          C78   1.270       .  A
O47         Mg71   2.297       .  S
C48        C1570   1.495       .  S
C48          O50   1.276   1_655  A
C48          O62   1.270       .  A
O49          C77   1.274       .  A
O49         Mg51   2.314   1_565  S
O50         Mg82   2.320       .  S
Mg51         O57   2.153       .  S
Mg51         O65   2.301       .  S
Mg51         O53   2.321       .  S
C52        C1581   1.470       .  S
C52          O90   1.265       .  A
C52          O58   1.279       .  A
O53          C60   1.276       .  A
H54          C67   1.078       .  S
C55          O69   1.238   1_565  S
C55          O70   1.273       .  A
C55          H80   1.080       .  S
O56          C79   1.268       .  A
O57         Mg71   2.144   1_556  S
O58         Mg88   2.342       .  S
C59        C1521   1.488   1_554  S
C59          O72   1.277       .  A
C59          O64   1.274   1_554  A
C60        C1541   1.467       .  S
C60          O87   1.269       .  A
Mg61         O68   2.106   1_655  S
Mg61         O69   2.152       .  S
Mg61         O62   2.265   1_545  S
Mg61         O63   2.286   1_655  S
Mg61         O90   2.191       .  S
O63          C67   1.268       .  A
O64         Mg71   2.279   1_656  S
O65          C84   1.274       .  A
O66          C86   1.276       .  A
O66         Mg82   2.320       .  S
O68         Mg82   2.144   1_545  S
O68          C79   1.235       .  S
O69         Mg88   2.160       .  S
O70         Mg82   2.306   1_655  S
Mg71         O87   2.229   1_554  S
O72         Mg88   2.307       .  S
H73          C78   1.079       .  S
O74         Mg82   2.163       .  S
O74          C77   1.238   1_554  S
H75          C77   1.078       .  S
H76          C79   1.079       .  S
O81         Mg88   2.307   1_556  S
C84        C1490   1.488   1_545  S
C84          O89   1.269   1_545  A
O85          C86   1.265       .  A
C86        C1510   1.462       .  S
C91          N92   1.360       .  A
C91          N96   1.365       .  A
C91        C1470   1.491       .  S
N92          C93   1.356       .  A
C93          N94   1.351       .  A
C93        C1550   1.484       .  S
N94          C95   1.355       .  A
C95          N96   1.363       .  A
C95        C1450   1.473       .  S
C97          N98   1.357       .  A
C97         N102   1.364       .  A
C97        C1430   1.490       .  S
N98          C99   1.354       .  A
C99         N100   1.354       .  A
C99        C1590   1.484       .  S
N100        C101   1.358       .  A
C101        N102   1.364       .  A
C101       C1750   1.489       .  S
C103        N104   1.356       .  A
C103        N108   1.359       .  A
C103       C1410   1.482       .  S
N104        C105   1.355       .  A
C105        N106   1.355       .  A
C105       C1501   1.477       .  S
N106        C107   1.356       .  A
C107        N108   1.358       .  A
C107       C1910   1.471       .  S
O109       Mg111   2.116       .  S
O109       Mg117   2.143   1_655  S
O109        C144   1.237       .  S
C110        O123   1.238       .  S
C110        O147   1.274       .  A
C110        H149   1.080   1_655  S
Mg111       O140   2.137       .  S
Mg111       O155   2.281       .  S
Mg111       O151   2.226       .  S
Mg111       O122   2.297       .  S
O112       Mg154   2.135       .  S
O112       Mg137   2.117       .  S
O112        C133   1.237       .  S
O113        C144   1.271       .  A
O113       Mg137   2.298       .  S
C114       C1361   1.479       .  S
C114        O116   1.274       .  A
C114        O128   1.273       .  A
O115        C143   1.273   1_455  A
O115       Mg117   2.304       .  S
O116       Mg148   2.283       .  S
Mg117       O123   2.170   1_455  S
Mg117       O131   2.313       .  S
Mg117       O119   2.317       .  S
C118       C1381   1.476       .  S
C118        O156   1.272       .  A
C118        O124   1.277       .  A
O119        C126   1.276       .  A
H120        C133   1.079       .  S
C121        O135   1.240       .  S
C121        O136   1.275       .  A
C121        H146   1.078       .  S
O122        C145   1.270       .  A
O123       Mg137   2.145       .  S
O124       Mg154   2.334       .  S
C125       C1321   1.494       .  S
C125        O138   1.275       .  A
C125        O130   1.275       .  A
C126       C1341   1.471       .  S
C126        O153   1.268       .  A
Mg127       O134   2.140       .  S
Mg127       O135   2.142       .  S
Mg127       O128   2.282       .  S
Mg127       O129   2.297       .  S
Mg127       O156   2.261       .  S
O129        C133   1.270       .  A
O130       Mg137   2.301       .  S
O131        C150   1.276       .  A
O132        C152   1.280       .  A
O132       Mg148   2.351       .  S
O134       Mg148   2.146       .  S
O134        C145   1.236       .  S
O135       Mg154   2.155       .  S
O136       Mg148   2.314       .  S
Mg137       O153   2.220   1_655  S
O138       Mg154   2.304       .  S
H139        C144   1.078       .  S
O140       Mg148   2.144       .  S
O140        C143   1.239       .  S
H141        C143   1.079       .  S
H142        C145   1.079       .  S
O147       Mg154   2.314       .  S
C150       C1281   1.491       .  S
C150        O155   1.272   1_455  A
O151        C152   1.269       .  A
C152       C1310   1.481       .  S
C157        N158   1.358       .  A
C157        N162   1.362       .  A
C157       C1270   1.487       .  S
N158        C159   1.357       .  A
C159        N160   1.356       .  A
C159       C1390   1.489       .  S
N160        C161   1.361       .  A
C161        N162   1.364       .  A
C161       C1770   1.485       .  S
C163        N164   1.363       .  A
C163        N168   1.356       .  A
C163       C1241   1.488       .  S
N164        C165   1.365       .  A
C165        N166   1.357       .  A
C165       C1930   1.487       .  S
N166        C167   1.353       .  A
C167        N168   1.352       .  A
C167       C1350   1.482       .  S
C169        N170   1.361       .  A
C169        N174   1.364       .  A
C169       C1230   1.488       .  S
N170        C171   1.357       .  A
C171        N172   1.352       .  A
C171       C1301   1.483       .  S
N172        C173   1.357       .  A
C173        N174   1.362       .  A
C173       C1970   1.487       .  S
O175       Mg177   2.121       .  S
O175       Mg183   2.155       .  S
O175        C210   1.238       .  S
C176        O189   1.237       .  S
C176        O213   1.271       .  A
C176        H215   1.079       .  S
Mg177       O206   2.136   1_655  S
Mg177       O221   2.275       .  S
Mg177       O217   2.218       .  S
Mg177       O188   2.296   1_565  S
O178       Mg220   2.151       .  S
O178       Mg203   2.135       .  S
O178        C199   1.238       .  S
O179        C210   1.271       .  A
O179       Mg203   2.294   1_655  S
C180       C1201   1.475       .  S
C180        O182   1.275       .  A
C180        O194   1.275       .  A
O181        C209   1.270       .  A
O181       Mg183   2.299   1_455  S
O182       Mg214   2.267   1_545  S
Mg183       O189   2.134   1_655  S
Mg183       O197   2.289       .  S
Mg183       O185   2.323       .  S
C184       C1190   1.498       .  S
C184        O222   1.277   1_565  A
C184        O190   1.277       .  A
O185        C192   1.278       .  A
H186        C199   1.080       .  S
C187        O201   1.237       .  S
C187        O202   1.270       .  A
C187        H212   1.078       .  S
O188        C211   1.272   1_655  A
O189       Mg203   2.143       .  S
O190       Mg220   2.324       .  S
C191       C1161   1.479       .  S
C191        O204   1.272       .  A
C191        O196   1.274       .  A
C192       C1221   1.486       .  S
C192        O219   1.272       .  A
Mg193       O200   2.149   1_545  S
Mg193       O201   2.141   1_545  S
Mg193       O194   2.282       .  S
Mg193       O195   2.295   1_545  S
Mg193       O222   2.295       .  S
O195        C199   1.271       .  A
O196       Mg203   2.294       .  S
O197        C216   1.275       .  A
O198        C218   1.280   1_455  A
O198       Mg214   2.351   1_545  S
O200       Mg214   2.165       .  S
O200        C211   1.238   1_565  S
O201       Mg220   2.119       .  S
O202       Mg214   2.295       .  S
Mg203       O219   2.243   1_455  S
O204       Mg220   2.256       .  S
H205        C210   1.080       .  S
O206       Mg214   2.133       .  S
O206        C209   1.237       .  S
H207        C209   1.079       .  S
H208        C211   1.080       .  S
O213       Mg220   2.301       .  S
C216       C1150   1.486       .  S
C216        O221   1.272       .  A
O217        C218   1.267   1_565  A
C218       C1421   1.488       .  S
C223        N224   1.364       .  A
C223        N228   1.363       .  A
C223       C1290   1.490       .  S
N224        C225   1.360       .  A
C225        N226   1.352       .  A
C225       C1610   1.472       .  S
N226        C227   1.350       .  A
C227        N228   1.358       .  A
C227       C1170   1.481       .  S
C229        N230   1.362       .  A
C229        N234   1.362       .  A
C229       C1130   1.489       .  S
N230        C231   1.359       .  A
C231        N232   1.352       .  A
C231       C1210   1.479       .  S
N232        C233   1.351       .  A
C233        N234   1.357       .  A
C233       C1810   1.460       .  S
C235        N236   1.364       .  A
C235        N240   1.362       .  A
C235       C1561   1.495       .  S
N236        C237   1.362       .  A
C237        N238   1.356       .  A
C237       C1141   1.493       .  S
N238        C239   1.356       .  A
C239        N240   1.360       .  A
C239       C1870   1.487       .  S
O241       Mg243   2.138       .  S
O241       Mg249   2.158       .  S
O241        C276   1.238       .  S
C242        O255   1.236       .  S
C242        O279   1.269       .  A
C242        H281   1.079       .  S
Mg243       O272   2.145       .  S
Mg243       O287   2.284       .  S
Mg243       O283   2.249       .  S
Mg243       O254   2.294       .  S
O244       Mg286   2.157       .  S
O244       Mg269   2.131       .  S
O244        C265   1.238   1_556  S
O245        C276   1.271       .  A
O245       Mg269   2.294       .  S
C246       C1021   1.486       .  S
C246        O248   1.277       .  A
C246        O260   1.271       .  A
O247        C275   1.271       .  A
O247       Mg249   2.301       .  S
O248       Mg280   2.301       .  S
Mg249       O255   2.126       .  S
Mg249       O263   2.278       .  S
Mg249       O251   2.332       .  S
C250       C1001   1.484       .  S
C250        O288   1.269   1_554  A
C250        O256   1.275       .  A
O251        C258   1.279       .  A
H252        C265   1.080       .  S
C253        O267   1.236       .  S
C253        O268   1.270       .  A
C253        H278   1.079       .  S
O254        C277   1.271       .  A
O255       Mg269   2.145       .  S
O256       Mg286   2.308   1_554  S
C257       C1061   1.475       .  S
C257        O270   1.272       .  A
C257        O262   1.274       .  A
C258       C1041   1.482   1_556  S
C258        O285   1.272   1_556  A
Mg259       O266   2.130       .  S
Mg259       O267   2.142       .  S
Mg259       O260   2.269       .  S
Mg259       O261   2.293       .  S
Mg259       O288   2.239       .  S
O261        C265   1.271   1_556  A
O262       Mg269   2.289   1_554  S
O263        C282   1.275       .  A
O264        C284   1.281       .  A
O264       Mg280   2.344       .  S
O266       Mg280   2.163       .  S
O266        C277   1.238       .  S
O267       Mg286   2.132       .  S
O268       Mg280   2.300       .  S
Mg269       O285   2.248   1_556  S
O270       Mg286   2.258   1_554  S
H271        C276   1.080       .  S
O272       Mg280   2.141       .  S
O272        C275   1.238       .  S
H273        C275   1.079       .  S
H274        C277   1.080       .  S
O279       Mg286   2.292       .  S
C282       C1101   1.482       .  S
C282        O287   1.274       .  A
O283        C284   1.272       .  A
C284       C1090   1.489       .  S
C289        N290   1.366       .  A
C289        N294   1.363       .  A
C289        C990   1.491       .  S
N290        C291   1.362       .  A
C291        N292   1.354       .  A
C291        C961   1.489       .  S
N292        C293   1.351       .  A
C293        N294   1.359       .  A
C293       C1110   1.484       .  S
C295        N296   1.361       .  A
C295        N300   1.359       .  A
C295        C941   1.487       .  S
N296        C297   1.359       .  A
C297        N298   1.356       .  A
C297       C1730   1.478       .  S
N298        C299   1.355       .  A
C299        N300   1.357       .  A
C299       C1070   1.481       .  S
C301        N302   1.361       .  A
C301        N306   1.365       .  A
C301        C921   1.493       .  S
N302        C303   1.358       .  A
C303        N304   1.354       .  A
C303       C1030   1.490       .  S
N304        C305   1.357       .  A
C305        N306   1.363       .  A
C305       C1990   1.488       .  S
O307       Mg309   2.126       .  S
O307       Mg315   2.165       .  S
O307        C342   1.237       .  S
C308        O321   1.237       .  S
C308        O345   1.271       .  A
C308        H347   1.079       .  S
Mg309       O338   2.147       .  S
Mg309       O353   2.241       .  S
Mg309       O349   2.239   1_554  S
Mg309       O320   2.291   1_554  S
O310       Mg352   2.156   1_455  S
O310       Mg335   2.136       .  S
O310        C331   1.238       .  S
O311        C342   1.270       .  A
O311       Mg335   2.292   1_655  S
C312        C861   1.484       .  S
C312        O314   1.275       .  A
C312        O326   1.278       .  A
O313        C341   1.271       .  A
O313       Mg315   2.300       .  S
O314       Mg346   2.270       .  S
Mg315       O321   2.134       .  S
Mg315       O329   2.289       .  S
Mg315       O317   2.319       .  S
C316       C1461   1.494       .  S
C316        O354   1.273   1_455  A
C316        O322   1.281   1_556  A
O317        C324   1.278       .  A
H318        C331   1.081       .  S
C319        O333   1.237       .  S
C319        O334   1.271       .  A
C319        H344   1.079       .  S
O320        C343   1.270       .  A
O321       Mg335   2.147   1_655  S
O322       Mg352   2.346   1_455  S
C323        C910   1.484       .  S
C323        O336   1.278       .  A
C323        O328   1.274       .  A
C324       C1250   1.487   1_655  S
C324        O351   1.272   1_655  A
Mg325       O332   2.141       .  S
Mg325       O333   2.145   1_556  S
Mg325       O326   2.314       .  S
Mg325       O327   2.297   1_655  S
Mg325       O354   2.258       .  S
O327        C331   1.272   1_556  A
O328       Mg335   2.287       .  S
O329        C348   1.273       .  A
O330        C350   1.280       .  A
O330       Mg346   2.348       .  S
O332       Mg346   2.157       .  S
O332        C343   1.237       .  S
O333       Mg352   2.154       .  S
O334       Mg346   2.303   1_554  S
Mg335       O351   2.252       .  S
O336       Mg352   2.304   1_455  S
H337        C342   1.080       .  S
O338       Mg346   2.131   1_554  S
O338        C341   1.238       .  S
H339        C341   1.079       .  S
H340        C343   1.080       .  S
O345       Mg352   2.297       .  S
C348        C881   1.480       .  S
C348        O353   1.268       .  A
O349        C350   1.270       .  A
C350        C930   1.493       .  S
C355        N356   1.359       .  A
C355        N360   1.361       .  A
C355       C1010   1.485       .  S
N356        C357   1.354       .  A
C357        N358   1.353       .  A
C357       C1841   1.464       .  S
N358        C359   1.355       .  A
C359        N360   1.360       .  A
C359        C890   1.482       .  S
C361        N362   1.363       .  A
C361        N366   1.366       .  A
C361       C1330   1.490       .  S
N362        C363   1.359       .  A
C363        N364   1.354       .  A
C363        C901   1.484       .  S
N364        C365   1.356       .  A
C365        N366   1.363       .  A
C365       C1830   1.476       .  S
C367        N368   1.361       .  A
C367        N372   1.361       .  A
C367       C1530   1.488       .  S
N368        C369   1.360       .  A
C369        N370   1.357       .  A
C369        C870   1.486       .  S
N370        C371   1.357       .  A
C371        N372   1.358       .  A
C371       C1690   1.470       .  S
O373       Mg375   2.128       .  S
O373       Mg381   2.157   1_554  S
O373        C408   1.238       .  S
C374        O387   1.237       .  S
C374        O411   1.270       .  A
C374        H413   1.079       .  S
Mg375       O404   2.144   1_554  S
Mg375       O419   2.283       .  S
Mg375       O415   2.232       .  S
Mg375       O386   2.293   1_554  S
O376       Mg418   2.155       .  S
O376       Mg401   2.119       .  S
O376        C397   1.238       .  S
O377        C408   1.271   1_566  A
O377       Mg401   2.292       .  S
C378        C821   1.484       .  S
C378        O380   1.275       .  A
C378        O392   1.272       .  A
O379        C407   1.270       .  A
O379       Mg381   2.294       .  S
O380       Mg412   2.282       .  S
Mg381       O387   2.139       .  S
Mg381       O395   2.275   1_556  S
Mg381       O383   2.324   1_556  S
C382        C810   1.489       .  S
C382        O420   1.271       .  A
C382        O388   1.279       .  A
O383        C390   1.277   1_545  A
H384        C397   1.080       .  S
C385        O399   1.238       .  S
C385        O400   1.272       .  A
C385        H410   1.080       .  S
O386        C409   1.270       .  A
O387       Mg401   2.141   1_545  S
O388       Mg418   2.337       .  S
C389        C781   1.486       .  S
C389        O402   1.276       .  A
C389        O394   1.272       .  A
C390       C1401   1.483       .  S
C390        O417   1.268   1_554  A
Mg391       O398   2.135       .  S
Mg391       O399   2.144       .  S
Mg391       O392   2.271       .  S
Mg391       O393   2.290   1_545  S
Mg391       O420   2.244   1_545  S
O393        C397   1.270       .  A
O394       Mg401   2.277       .  S
O395        C414   1.274       .  A
O396        C416   1.280       .  A
O396       Mg412   2.343       .  S
O398       Mg412   2.155       .  S
O398        C409   1.237       .  S
O399       Mg418   2.139   1_545  S
O400       Mg412   2.304       .  S
Mg401       O417   2.220       .  S
O402       Mg418   2.293       .  S
H403        C408   1.081       .  S
O404       Mg412   2.128       .  S
O404        C407   1.236       .  S
H405        C407   1.079       .  S
H406        C409   1.080       .  S
O411       Mg418   2.301   1_545  S
C414        C841   1.479       .  S
C414        O419   1.273       .  A
O415        C416   1.270   1_554  A
C416        C950   1.487   1_556  S
C421        N422   1.363       .  A
C421        N426   1.359       .  A
C421        C761   1.491       .  S
N422        C423   1.362       .  A
C423        N424   1.358       .  A
C423       C1670   1.486       .  S
N424        C425   1.355       .  A
C425        N426   1.357       .  A
C425        C830   1.485       .  S
C427        N428   1.360       .  A
C427        N432   1.364       .  A
C427       C1050   1.488       .  S
N428        C429   1.355       .  A
C429        N430   1.352       .  A
C429        C850   1.483       .  S
N430        C431   1.356       .  A
C431        N432   1.362       .  A
C431       C1781   1.480       .  S
C433        N434   1.362       .  A
C433        N438   1.362       .  A
C433       C1481   1.488       .  S
N434        C435   1.358       .  A
C435        N436   1.353       .  A
C435        C790   1.485       .  S
N436        C437   1.355       .  A
C437        N438   1.359       .  A
C437       C1630   1.473       .  S
O439       Mg441   2.134       .  S
O439       Mg447   2.157       .  S
O439        C474   1.237       .  S
C440        O453   1.238       .  S
C440        O477   1.271       .  A
C440        H479   1.079       .  S
Mg441       O470   2.146       .  S
Mg441       O485   2.292       .  S
Mg441       O481   2.239       .  S
Mg441       O452   2.293       .  S
O442       Mg484   2.155       .  S
O442       Mg467   2.123       .  S
O442        C463   1.237       .  S
O443        C474   1.270       .  A
O443       Mg467   2.293       .  S
C444        C681   1.480       .  S
C444        O446   1.276       .  A
C444        O458   1.273       .  A
O445        C473   1.271       .  A
O445       Mg447   2.307       .  S
O446       Mg478   2.291       .  S
Mg447       O453   2.128       .  S
Mg447       O461   2.262       .  S
Mg447       O449   2.331       .  S
C448        C981   1.492       .  S
C448        O486   1.274       .  A
C448        O454   1.279       .  A
O449        C456   1.278       .  A
H450        C463   1.080       .  S
C451        O465   1.237       .  S
C451        O466   1.270       .  A
C451        H476   1.080       .  S
O452        C475   1.270       .  A
O453       Mg467   2.152       .  S
O454       Mg484   2.332       .  S
C455        C741   1.488       .  S
C455        O468   1.275       .  A
C455        O460   1.272       .  A
C456       C1261   1.479       .  S
C456        O483   1.270       .  A
Mg457       O464   2.134       .  S
Mg457       O465   2.143       .  S
Mg457       O458   2.266       .  S
Mg457       O459   2.286       .  S
Mg457       O486   2.263       .  S
O459        C463   1.270       .  A
O460       Mg467   2.272       .  S
O461        C480   1.272       .  A
O462        C482   1.279       .  A
O462       Mg478   2.331       .  S
O464       Mg478   2.159       .  S
O464        C475   1.237       .  S
O465       Mg484   2.131       .  S
O466       Mg478   2.295       .  S
Mg467       O483   2.244       .  S
O468       Mg484   2.292       .  S
H469        C474   1.081       .  S
O470       Mg478   2.151       .  S
O470        C473   1.237       .  S
H471        C473   1.079       .  S
H472        C475   1.080       .  S
O477       Mg484   2.299       .  S
C480        C730   1.481       .  S
C480        O485   1.275       .  A
O481        C482   1.271       .  A
C482        C701   1.487       .  S
C487        N488   1.361       .  A
C487        N492   1.361       .  A
C487        C661   1.484       .  S
N488        C489   1.358       .  A
C489        N490   1.354       .  A
C489       C1890   1.471       .  S
N490        C491   1.354       .  A
C491        N492   1.360       .  A
C491        C721   1.484       .  S
C493        N494   1.356       .  A
C493        N498   1.366       .  A
C493       C1081   1.492       .  S
N494        C495   1.353       .  A
C495        N496   1.352       .  A
C495        C690   1.483       .  S
N496        C497   1.358       .  A
C497        N498   1.366       .  A
C497       C1641   1.481       .  S
C499        N500   1.361       .  A
C499        N504   1.363       .  A
C499       C1370   1.492       .  S
N500        C501   1.358       .  A
C501        N502   1.355       .  A
C501       C1710   1.472       .  S
N502        C503   1.356       .  A
C503        N504   1.362       .  A
C503        C750   1.491       .  S
O505       Mg507   2.155       .  S
O505       Mg513   2.158       .  S
O505        C540   1.240   1_565  S
C506        O519   1.237       .  S
C506        O543   1.271       .  A
C506        H545   1.079       .  S
Mg507       O536   2.148       .  S
Mg507       O551   2.294   1_565  S
Mg507       O547   2.269   1_565  S
Mg507       O518   2.290       .  S
O508       Mg550   2.158       .  S
O508       Mg533   2.129       .  S
O508        C529   1.238       .  S
O509        C540   1.274   1_565  A
O509       Mg533   2.307       .  S
C510        C650   1.489       .  S
C510        O512   1.276       .  A
C510        O524   1.272       .  A
O511        C539   1.270       .  A
O511       Mg513   2.297       .  S
O512       Mg544   2.304       .  S
Mg513       O519   2.137       .  S
Mg513       O527   2.273   1_565  S
Mg513       O515   2.328   1_565  S
C514        C670   1.486       .  S
C514        O552   1.268       .  A
C514        O520   1.279       .  A
O515        C522   1.278       .  A
H516        C529   1.081       .  S
C517        O531   1.237       .  S
C517        O532   1.270       .  A
C517        H542   1.079       .  S
O518        C541   1.270       .  A
O519       Mg533   2.137       .  S
O520       Mg550   2.343       .  S
C521        C610   1.486       .  S
C521        O534   1.275       .  A
C521        O526   1.276       .  A
C522        C770   1.491       .  S
C522        O549   1.272   1_545  A
Mg523       O530   2.120       .  S
Mg523       O531   2.143       .  S
Mg523       O524   2.274       .  S
Mg523       O525   2.290       .  S
Mg523       O552   2.220       .  S
O525        C529   1.271       .  A
O526       Mg533   2.300       .  S
O527        C546   1.274       .  A
O528        C548   1.278       .  A
O528       Mg544   2.315       .  S
O530       Mg544   2.154       .  S
O530        C541   1.238       .  S
O531       Mg550   2.136       .  S
O532       Mg544   2.293       .  S
Mg533       O549   2.257       .  S
O534       Mg550   2.280       .  S
H535        C540   1.080       .  S
O536       Mg544   2.133       .  S
O536        C539   1.236       .  S
H537        C539   1.079       .  S
H538        C541   1.081       .  S
O543       Mg550   2.303       .  S
C546        C621   1.481       .  S
C546        O551   1.275       .  A
O547        C548   1.275   1_545  A
C548       C1121   1.488       .  S
C553        N554   1.356       .  A
C553        N558   1.360       .  A
C553        C710   1.486       .  S
N554        C555   1.355       .  A
C555        N556   1.359       .  A
C555       C1950   1.471       .  S
N556        C557   1.359       .  A
C557        N558   1.361       .  A
C557        C641   1.488       .  S
C559        N560   1.372       .  A
C559        N564   1.363       .  A
C559       C1181   1.500       .  S
N560        C561   1.369       .  A
C561        N562   1.354       .  A
C561        C581   1.496       .  S
N562        C563   1.350       .  A
C563        N564   1.357       .  A
C563        C630   1.486       .  S
C565        N566   1.362       .  A
C565        N570   1.364       .  A
C565        C801   1.491       .  S
N566        C567   1.359       .  A
C567        N568   1.356       .  A
C567       C2010   1.484       .  S
N568        C569   1.354       .  A
C569        N570   1.360       .  A
C569        C601   1.490       .  S
C571        N572   1.358       .  A
C571        N576   1.361       .  A
C571        C970   1.486       .  S
N572        C573   1.355       .  A
C573        N574   1.359       .  A
C573       C1441   1.484       .  S
N574        C575   1.360       .  A
C575        N576   1.362       .  A
C575        C590   1.492       .  S
C577        H587   1.084       .  S
C577        C578   1.398       .  A
C577        C582   1.392       .  A
C578        C583   1.489       .  S
C578        C579   1.411       .  A
C579        C580   1.409       .  A
C579        F584   1.357       .  S
C580        H585   1.083       .  S
C580        C581   1.408       .  A
C581        C582   1.415       .  A
C582        F586   1.355       .  S
C583        C588   1.405       .  A
C583        C592   1.406       .  A
C588        C589   1.402       .  A
C588        F593   1.357       .  S
C589        H594   1.083       .  S
C589        C590   1.410       .  A
C590        C591   1.410       .  A
C591        C592   1.398       .  A
C591        F595   1.357       .  S
C592        H596   1.083       .  S
C597        H607   1.083       .  S
C597        C598   1.400       .  A
C597        C602   1.398       .  A
C598        C603   1.484       .  S
C598        C599   1.408       .  A
C599        C600   1.399       .  A
C599        F604   1.357       .  S
C600        H605   1.083       .  S
C600        C601   1.406       .  A
C601        C602   1.415       .  A
C602        F606   1.356       .  S
C603        C608   1.404       .  A
C603        C612   1.405       .  A
C608        C609   1.396       .  A
C608        F613   1.357       .  S
C609        H614   1.083       .  S
C609        C610   1.407       .  A
C610        C611   1.411       .  A
C611        C612   1.402       .  A
C611        F615   1.357       .  S
C612        H616   1.083       .  S
C617        H627   1.083       .  S
C617        C618   1.405       .  A
C617        C622   1.398       .  A
C618        C623   1.485       .  S
C618        C619   1.407       .  A
C619        C620   1.398       .  A
C619        F624   1.357       .  S
C620        H625   1.083       .  S
C620        C621   1.406       .  A
C621        C622   1.409       .  A
C622        F626   1.357       .  S
C623        C628   1.410       .  A
C623        C632   1.401       .  A
C628        C629   1.401       .  A
C628        F633   1.357       .  S
C629        H634   1.083       .  S
C629        C630   1.405       .  A
C630        C631   1.412       .  A
C631        C632   1.394       .  A
C631        F635   1.355       .  S
C632        H636   1.083       .  S
C637        H647   1.083       .  S
C637        C638   1.403       .  A
C637        C642   1.402       .  A
C638        C643   1.483       .  S
C638        C639   1.405       .  A
C639        C640   1.397       .  A
C639        F644   1.358       .  S
C640        H645   1.083       .  S
C640        C641   1.406       .  A
C641        C642   1.413       .  A
C642        F646   1.357       .  S
C643        C648   1.403       .  A
C643        C652   1.405       .  A
C648        C649   1.396       .  A
C648        F653   1.358       .  S
C649        H654   1.083       .  S
C649        C650   1.409       .  A
C650        C651   1.410       .  A
C651        C652   1.404       .  A
C651        F655   1.357       .  S
C652        H656   1.083       .  S
C657        H667   1.083       .  S
C657        C658   1.405       .  A
C657        C662   1.397       .  A
C658        C663   1.483       .  S
C658        C659   1.405       .  A
C659        C660   1.400       .  A
C659        F664   1.357       .  S
C660        H665   1.083       .  S
C660        C661   1.408       .  A
C661        C662   1.409       .  A
C662        F666   1.357       .  S
C663        C668   1.408       .  A
C663        C672   1.400       .  A
C668        C669   1.405       .  A
C668        F673   1.357       .  S
C669        H674   1.083       .  S
C669        C670   1.407       .  A
C670        C671   1.413       .  A
C671        C672   1.391       .  A
C671        F675   1.358       .  S
C672        H676   1.084       .  S
C677        H687   1.083       .  S
C677        C678   1.404       .  A
C677        C682   1.400       .  A
C678        C683   1.474       .  S
C678        C679   1.401       .  A
C679        C680   1.393       .  A
C679        F684   1.358       .  S
C680        H685   1.083       .  S
C680        C681   1.408       .  A
C681        C682   1.409       .  A
C682        F686   1.357       .  S
C683        C688   1.404       .  A
C683        C692   1.400       .  A
C688        C689   1.394       .  A
C688        F693   1.358       .  S
C689        H694   1.082       .  S
C689        C690   1.408       .  A
C690        C691   1.412       .  A
C691        C692   1.397       .  A
C691        F695   1.357       .  S
C692        H696   1.083       .  S
C697        H707   1.084       .  S
C697        C698   1.399       .  A
C697        C702   1.391       .  A
C698        C703   1.476       .  S
C698        C699   1.404       .  A
C699        C700   1.403       .  A
C699        F704   1.357       .  S
C700        H705   1.083       .  S
C700        C701   1.410       .  A
C701        C702   1.412       .  A
C702        F706   1.358       .  S
C703        C708   1.403       .  A
C703        C712   1.402       .  A
C708        C709   1.398       .  A
C708        F713   1.357       .  S
C709        H714   1.083       .  S
C709        C710   1.408       .  A
C710        C711   1.412       .  A
C711        C712   1.396       .  A
C711        F715   1.357       .  S
C712        H716   1.084       .  S
C717        H727   1.083       .  S
C717        C718   1.400       .  A
C717        C722   1.398       .  A
C718        C723   1.475       .  S
C718        C719   1.405       .  A
C719        C720   1.394       .  A
C719        F724   1.358       .  S
C720        H725   1.083       .  S
C720        C721   1.405       .  A
C721        C722   1.414       .  A
C722        F726   1.357       .  S
C723        C728   1.403       .  A
C723        C732   1.402       .  A
C728        C729   1.393       .  A
C728        F733   1.358       .  S
C729        H734   1.083       .  S
C729        C730   1.406       .  A
C730        C731   1.411       .  A
C731        C732   1.399       .  A
C731        F735   1.357       .  S
C732        H736   1.083       .  S
C737        H747   1.083       .  S
C737        C738   1.406       .  A
C737        C742   1.403       .  A
C738        C743   1.484       .  S
C738        C739   1.404       .  A
C739        C740   1.394       .  A
C739        F744   1.358       .  S
C740        H745   1.083       .  S
C740        C741   1.409       .  A
C741        C742   1.410       .  A
C742        F746   1.357       .  S
C743        C748   1.407       .  A
C743        C752   1.401       .  A
C748        C749   1.399       .  A
C748        F753   1.358       .  S
C749        H754   1.083       .  S
C749        C750   1.407       .  A
C750        C751   1.414       .  A
C751        C752   1.399       .  A
C751        F755   1.357       .  S
C752        H756   1.083       .  S
C757        H767   1.084       .  S
C757        C758   1.400       .  A
C757        C762   1.397       .  A
C758        C763   1.482       .  S
C758        C759   1.406       .  A
C759        C760   1.402       .  A
C759        F764   1.357       .  S
C760        H765   1.083       .  S
C760        C761   1.409       .  A
C761        C762   1.413       .  A
C762        F766   1.356       .  S
C763        C768   1.403       .  A
C763        C772   1.404       .  A
C768        C769   1.398       .  A
C768        F773   1.358       .  S
C769        H774   1.083       .  S
C769        C770   1.409       .  A
C770        C771   1.411       .  A
C771        C772   1.402       .  A
C771        F775   1.357       .  S
C772        H776   1.083       .  S
C777        H787   1.084       .  S
C777        C778   1.398       .  A
C777        C782   1.395       .  A
C778        C783   1.475       .  S
C778        C779   1.405       .  A
C779        C780   1.401       .  A
C779        F784   1.357       .  S
C780        H785   1.083       .  S
C780        C781   1.407       .  A
C781        C782   1.414       .  A
C782        F786   1.358       .  S
C783        C788   1.400       .  A
C783        C792   1.403       .  A
C788        C789   1.396       .  A
C788        F793   1.357       .  S
C789        H794   1.083       .  S
C789        C790   1.410       .  A
C790        C791   1.410       .  A
C791        C792   1.399       .  A
C791        F795   1.357       .  S
C792        H796   1.083       .  S
C797        H807   1.083       .  S
C797        C798   1.404       .  A
C797        C802   1.400       .  A
C798        C803   1.484       .  S
C798        C799   1.405       .  A
C799        C800   1.398       .  A
C799        F804   1.357       .  S
C800        H805   1.083       .  S
C800        C801   1.408       .  A
C801        C802   1.413       .  A
C802        F806   1.357       .  S
C803        C808   1.407       .  A
C803        C812   1.401       .  A
C808        C809   1.403       .  A
C808        F813   1.357       .  S
C809        H814   1.083       .  S
C809        C810   1.407       .  A
C810        C811   1.413       .  A
C811        C812   1.396       .  A
C811        F815   1.358       .  S
C812        H816   1.084       .  S
C817        H827   1.084       .  S
C817        C818   1.400       .  A
C817        C822   1.393       .  A
C818        C823   1.476       .  S
C818        C819   1.405       .  A
C819        C820   1.400       .  A
C819        F824   1.357       .  S
C820        H825   1.083       .  S
C820        C821   1.407       .  A
C821        C822   1.413       .  A
C822        F826   1.358       .  S
C823        C828   1.402       .  A
C823        C832   1.402       .  A
C828        C829   1.398       .  A
C828        F833   1.357       .  S
C829        H834   1.083       .  S
C829        C830   1.409       .  A
C830        C831   1.410       .  A
C831        C832   1.396       .  A
C831        F835   1.356       .  S
C832        H836   1.084       .  S
C837        H847   1.083       .  S
C837        C838   1.403       .  A
C837        C842   1.397       .  A
C838        C843   1.478       .  S
C838        C839   1.405       .  A
C839        C840   1.397       .  A
C839        F844   1.357       .  S
C840        H845   1.083       .  S
C840        C841   1.405       .  A
C841        C842   1.409       .  A
C842        F846   1.358       .  S
C843        C848   1.404       .  A
C843        C852   1.403       .  A
C848        C849   1.396       .  A
C848        F853   1.358       .  S
C849        H854   1.083       .  S
C849        C850   1.408       .  A
C850        C851   1.410       .  A
C851        C852   1.397       .  A
C851        F855   1.357       .  S
C852        H856   1.083       .  S
C857        H867   1.084       .  S
C857        C858   1.404       .  A
C857        C862   1.397       .  A
C858        C863   1.483       .  S
C858        C859   1.406       .  A
C859        C860   1.401       .  A
C859        F864   1.357       .  S
C860        H865   1.083       .  S
C860        C861   1.408       .  A
C861        C862   1.408       .  A
C862        F866   1.358       .  S
C863        C868   1.406       .  A
C863        C872   1.403       .  A
C868        C869   1.403       .  A
C868        F873   1.358       .  S
C869        H874   1.083       .  S
C869        C870   1.410       .  A
C870        C871   1.408       .  A
C871        C872   1.395       .  A
C871        F875   1.357       .  S
C872        H876   1.083       .  S
C877        H887   1.083       .  S
C877        C878   1.405       .  A
C877        C882   1.401       .  A
C878        C883   1.474       .  S
C878        C879   1.400       .  A
C879        C880   1.389       .  A
C879        F884   1.358       .  S
C880        H885   1.083       .  S
C880        C881   1.409       .  A
C881        C882   1.408       .  A
C882        F886   1.357       .  S
C883        C888   1.406       .  A
C883        C892   1.398       .  A
C888        C889   1.396       .  A
C888        F893   1.358       .  S
C889        H894   1.083       .  S
C889        C890   1.406       .  A
C890        C891   1.413       .  A
C891        C892   1.394       .  A
C891        F895   1.357       .  S
C892        H896   1.083       .  S
C897        H907   1.083       .  S
C897        C898   1.407       .  A
C897        C902   1.401       .  A
C898        C903   1.488       .  S
C898        C899   1.406       .  A
C899        C900   1.399       .  A
C899        F904   1.357       .  S
C900        H905   1.083       .  S
C900        C901   1.407       .  A
C901        C902   1.408       .  A
C902        F906   1.357       .  S
C903        C908   1.408       .  A
C903        C912   1.404       .  A
C908        C909   1.402       .  A
C908        F913   1.357       .  S
C909        H914   1.083       .  S
C909        C910   1.405       .  A
C910        C911   1.410       .  A
C911        C912   1.399       .  A
C911        F915   1.358       .  S
C912        H916   1.083       .  S
C917        H927   1.083       .  S
C917        C918   1.401       .  A
C917        C922   1.398       .  A
C918        C923   1.485       .  S
C918        C919   1.407       .  A
C919        C920   1.402       .  A
C919        F924   1.357       .  S
C920        H925   1.083       .  S
C920        C921   1.409       .  A
C921        C922   1.414       .  A
C922        F926   1.356       .  S
C923        C928   1.403       .  A
C923        C932   1.406       .  A
C928        C929   1.397       .  A
C928        F933   1.358       .  S
C929        H934   1.083       .  S
C929        C930   1.411       .  A
C930        C931   1.410       .  A
C931        C932   1.403       .  A
C931        F935   1.357       .  S
C932        H936   1.083       .  S
C937        H947   1.084       .  S
C937        C938   1.400       .  A
C937        C942   1.396       .  A
C938        C943   1.478       .  S
C938        C939   1.405       .  A
C939        C940   1.399       .  A
C939        F944   1.357       .  S
C940        H945   1.083       .  S
C940        C941   1.408       .  A
C941        C942   1.413       .  A
C942        F946   1.356       .  S
C943        C948   1.402       .  A
C943        C952   1.405   1_554  A
C948        C949   1.395       .  A
C948        F953   1.358       .  S
C949        H954   1.083       .  S
C949        C950   1.410       .  A
C950        C951   1.409   1_554  A
C951        C952   1.402       .  A
C951        F955   1.357       .  S
C952        H956   1.083       .  S
C957        H967   1.083       .  S
C957        C958   1.405       .  A
C957        C962   1.404       .  A
C958        C963   1.481       .  S
C958        C959   1.403       .  A
C959        C960   1.391       .  A
C959        F964   1.358       .  S
C960        H965   1.083       .  S
C960        C961   1.409       .  A
C961        C962   1.411       .  A
C962        F966   1.357       .  S
C963        C968   1.405       .  A
C963        C972   1.403       .  A
C968        C969   1.396       .  A
C968        F973   1.358       .  S
C969        H974   1.083       .  S
C969        C970   1.408       .  A
C970        C971   1.411       .  A
C971        C972   1.400       .  A
C971        F975   1.356       .  S
C972        H976   1.083       .  S
C977        H987   1.083       .  S
C977        C978   1.405       .  A
C977        C982   1.405       .  A
C978        C983   1.487       .  S
C978        C979   1.405       .  A
C979        C980   1.397       .  A
C979        F984   1.358       .  S
C980        H985   1.083       .  S
C980        C981   1.408       .  A
C981        C982   1.412       .  A
C982        F986   1.357       .  S
C983        C988   1.407       .  A
C983        C992   1.403       .  A
C988        C989   1.400       .  A
C988        F993   1.357       .  S
C989        H994   1.083       .  S
C989        C990   1.407       .  A
C990        C991   1.413       .  A
C991        C992   1.401       .  A
C991        F995   1.357       .  S
C992        H996   1.083       .  S
C997       H1007   1.084       .  S
C997        C998   1.399       .  A
C997       C1002   1.392       .  A
C998       C1003   1.472       .  S
C998        C999   1.403       .  A
C999       C1000   1.401       .  A
C999       F1004   1.357       .  S
C1000      H1005   1.083       .  S
C1000      C1001   1.409       .  A
C1001      C1002   1.412       .  A
C1002      F1006   1.358       .  S
C1003      C1008   1.402       .  A
C1003      C1012   1.400       .  A
C1008      C1009   1.397       .  A
C1008      F1013   1.358       .  S
C1009      H1014   1.083       .  S
C1009      C1010   1.409       .  A
C1010      C1011   1.412       .  A
C1011      C1012   1.395       .  A
C1011      F1015   1.357       .  S
C1012      H1016   1.084       .  S
C1017      H1027   1.084       .  S
C1017      C1018   1.400       .  A
C1017      C1022   1.395       .  A
C1018      C1023   1.480       .  S
C1018      C1019   1.406       .  A
C1019      C1020   1.402       .  A
C1019      F1024   1.357       .  S
C1020      H1025   1.083       .  S
C1020      C1021   1.407       .  A
C1021      C1022   1.413       .  A
C1022      F1026   1.358       .  S
C1023      C1028   1.403       .  A
C1023      C1032   1.403       .  A
C1028      C1029   1.399       .  A
C1028      F1033   1.357       .  S
C1029      H1034   1.083       .  S
C1029      C1030   1.411       .  A
C1030      C1031   1.410       .  A
C1031      C1032   1.397       .  A
C1031      F1035   1.356       .  S
C1032      H1036   1.084       .  S
C1037      H1047   1.083       .  S
C1037      C1038   1.402       .  A
C1037      C1042   1.397       .  A
C1038      C1043   1.483       .  S
C1038      C1039   1.408   1_554  A
C1039      C1040   1.401       .  A
C1039      F1044   1.358       .  S
C1040      H1045   1.083       .  S
C1040      C1041   1.405   1_556  A
C1041      C1042   1.410       .  A
C1042      F1046   1.358       .  S
C1043      C1048   1.404       .  A
C1043      C1052   1.405       .  A
C1048      C1049   1.395       .  A
C1048      F1053   1.358       .  S
C1049      H1054   1.083       .  S
C1049      C1050   1.408       .  A
C1050      C1051   1.411       .  A
C1051      C1052   1.402       .  A
C1051      F1055   1.357       .  S
C1052      H1056   1.083       .  S
C1057      H1067   1.084       .  S
C1057      C1058   1.403       .  A
C1057      C1062   1.395       .  A
C1058      C1063   1.476       .  S
C1058      C1059   1.404       .  A
C1059      C1060   1.397       .  A
C1059      F1064   1.357       .  S
C1060      H1065   1.083       .  S
C1060      C1061   1.406       .  A
C1061      C1062   1.407       .  A
C1062      F1066   1.358       .  S
C1063      C1068   1.403       .  A
C1063      C1072   1.402       .  A
C1068      C1069   1.397       .  A
C1068      F1073   1.357       .  S
C1069      H1074   1.083       .  S
C1069      C1070   1.408       .  A
C1070      C1071   1.409       .  A
C1071      C1072   1.395       .  A
C1071      F1075   1.356       .  S
C1072      H1076   1.084       .  S
C1077      H1087   1.083       .  S
C1077      C1078   1.401       .  A
C1077      C1082   1.394       .  A
C1078      C1083   1.492       .  S
C1078      C1079   1.411       .  A
C1079      C1080   1.405       .  A
C1079      F1084   1.357       .  S
C1080      H1085   1.083       .  S
C1080      C1081   1.407       .  A
C1081      C1082   1.414       .  A
C1082      F1086   1.357       .  S
C1083      C1088   1.406       .  A
C1083      C1092   1.409       .  A
C1088      C1089   1.397       .  A
C1088      F1093   1.357       .  S
C1089      H1094   1.083       .  S
C1089      C1090   1.408       .  A
C1090      C1091   1.408       .  A
C1091      C1092   1.403       .  A
C1091      F1095   1.357       .  S
C1092      H1096   1.083       .  S
C1097      H1107   1.083       .  S
C1097      C1098   1.403       .  A
C1097      C1102   1.396       .  A
C1098      C1103   1.484       .  S
C1098      C1099   1.408       .  A
C1099      C1100   1.400       .  A
C1099      F1104   1.357       .  S
C1100      H1105   1.083       .  S
C1100      C1101   1.406       .  A
C1101      C1102   1.409       .  A
C1102      F1106   1.358       .  S
C1103      C1108   1.404       .  A
C1103      C1112   1.407       .  A
C1108      C1109   1.396       .  A
C1108      F1113   1.357       .  S
C1109      H1114   1.083       .  S
C1109      C1110   1.409       .  A
C1110      C1111   1.407       .  A
C1111      C1112   1.400       .  A
C1111      F1115   1.357       .  S
C1112      H1116   1.083       .  S
C1117      H1127   1.083       .  S
C1117      C1118   1.403   1_565  A
C1117      C1122   1.399       .  A
C1118      C1123   1.481       .  S
C1118      C1119   1.405       .  A
C1119      C1120   1.398       .  A
C1119      F1124   1.358       .  S
C1120      H1125   1.083       .  S
C1120      C1121   1.409   1_545  A
C1121      C1122   1.411       .  A
C1122      F1126   1.357       .  S
C1123      C1128   1.404       .  A
C1123      C1132   1.402       .  A
C1128      C1129   1.399       .  A
C1128      F1133   1.357       .  S
C1129      H1134   1.083       .  S
C1129      C1130   1.409       .  A
C1130      C1131   1.412       .  A
C1131      C1132   1.397       .  A
C1131      F1135   1.357       .  S
C1132      H1136   1.084       .  S
C1137      H1147   1.083       .  S
C1137      C1138   1.401       .  A
C1137      C1142   1.398       .  A
C1138      C1143   1.487       .  S
C1138      C1139   1.409       .  A
C1139      C1140   1.401       .  A
C1139      F1144   1.358       .  S
C1140      H1145   1.083       .  S
C1140      C1141   1.407       .  A
C1141      C1142   1.415       .  A
C1142      F1146   1.356       .  S
C1143      C1148   1.405       .  A
C1143      C1152   1.407       .  A
C1148      C1149   1.396       .  A
C1148      F1153   1.358       .  S
C1149      H1154   1.083       .  S
C1149      C1150   1.408       .  A
C1150      C1151   1.409       .  A
C1151      C1152   1.402       .  A
C1151      F1155   1.357       .  S
C1152      H1156   1.083       .  S
C1157      H1167   1.083       .  S
C1157      C1158   1.403       .  A
C1157      C1162   1.397       .  A
C1158      C1163   1.477       .  S
C1158      C1159   1.404       .  A
C1159      C1160   1.396       .  A
C1159      F1164   1.358       .  S
C1160      H1165   1.083       .  S
C1160      C1161   1.406       .  A
C1161      C1162   1.409       .  A
C1162      F1166   1.358       .  S
C1163      C1168   1.403       .  A
C1163      C1172   1.404       .  A
C1168      C1169   1.395       .  A
C1168      F1173   1.358       .  S
C1169      H1174   1.083       .  S
C1169      C1170   1.409       .  A
C1170      C1171   1.408       .  A
C1171      C1172   1.397       .  A
C1171      F1175   1.357       .  S
C1172      H1176   1.083       .  S
C1177      H1187   1.083   1_545  S
C1177      C1178   1.403       .  A
C1177      C1182   1.401       .  A
C1178      C1183   1.495       .  S
C1178      C1179   1.409       .  A
C1179      C1180   1.406       .  A
C1179      F1184   1.357       .  S
C1180      H1185   1.083       .  S
C1180      C1181   1.408       .  A
C1181      C1182   1.416       .  A
C1182      F1186   1.357       .  S
C1183      C1188   1.407       .  A
C1183      C1192   1.406   1_545  A
C1188      C1189   1.402       .  A
C1188      F1193   1.357       .  S
C1189      H1194   1.083       .  S
C1189      C1190   1.408   1_545  A
C1190      C1191   1.414       .  A
C1191      C1192   1.405       .  A
C1191      F1195   1.358       .  S
C1192      H1196   1.083       .  S
C1197      H1207   1.083       .  S
C1197      C1198   1.404       .  A
C1197      C1202   1.398       .  A
C1198      C1203   1.478       .  S
C1198      C1199   1.405       .  A
C1199      C1200   1.393       .  A
C1199      F1204   1.358       .  S
C1200      H1205   1.083       .  S
C1200      C1201   1.404       .  A
C1201      C1202   1.409       .  A
C1202      F1206   1.358       .  S
C1203      C1208   1.407       .  A
C1203      C1212   1.401       .  A
C1208      C1209   1.395       .  A
C1208      F1213   1.357       .  S
C1209      H1214   1.083       .  S
C1209      C1210   1.404       .  A
C1210      C1211   1.412       .  A
C1211      C1212   1.396       .  A
C1211      F1215   1.358       .  S
C1212      H1216   1.083       .  S
C1217      H1227   1.083       .  S
C1217      C1218   1.403       .  A
C1217      C1222   1.401       .  A
C1218      C1223   1.473       .  S
C1218      C1219   1.400       .  A
C1219      C1220   1.395       .  A
C1219      F1224   1.357       .  S
C1220      H1225   1.083       .  S
C1220      C1221   1.409       .  A
C1221      C1222   1.411       .  A
C1222      F1226   1.357       .  S
C1223      C1228   1.402       .  A
C1223      C1232   1.399       .  A
C1228      C1229   1.402       .  A
C1228      F1233   1.357       .  S
C1229      H1234   1.083       .  S
C1229      C1230   1.409       .  A
C1230      C1231   1.413       .  A
C1231      C1232   1.396       .  A
C1231      F1235   1.357       .  S
C1232      H1236   1.084       .  S
C1237      H1247   1.083       .  S
C1237      C1238   1.406       .  A
C1237      C1242   1.403       .  A
C1238      C1243   1.481       .  S
C1238      C1239   1.402       .  A
C1239      C1240   1.393       .  A
C1239      F1244   1.358       .  S
C1240      H1245   1.082       .  S
C1240      C1241   1.409       .  A
C1241      C1242   1.410       .  A
C1242      F1246   1.357       .  S
C1243      C1248   1.407   1_455  A
C1243      C1252   1.400       .  A
C1248      C1249   1.400       .  A
C1248      F1253   1.358       .  S
C1249      H1254   1.083       .  S
C1249      C1250   1.408   1_655  A
C1250      C1251   1.412       .  A
C1251      C1252   1.396       .  A
C1251      F1255   1.357       .  S
C1252      H1256   1.083       .  S
C1257      H1267   1.083       .  S
C1257      C1258   1.402       .  A
C1257      C1262   1.399       .  A
C1258      C1263   1.483       .  S
C1258      C1259   1.408       .  A
C1259      C1260   1.402       .  A
C1259      F1264   1.357       .  S
C1260      H1265   1.083       .  S
C1260      C1261   1.404       .  A
C1261      C1262   1.408       .  A
C1262      F1266   1.358       .  S
C1263      C1268   1.404       .  A
C1263      C1272   1.405       .  A
C1268      C1269   1.397       .  A
C1268      F1273   1.358       .  S
C1269      H1274   1.083       .  S
C1269      C1270   1.408       .  A
C1270      C1271   1.410       .  A
C1271      C1272   1.403       .  A
C1271      F1275   1.357       .  S
C1272      H1276   1.083       .  S
C1277      H1287   1.084       .  S
C1277      C1278   1.398       .  A
C1277      C1282   1.396       .  A
C1278      C1283   1.479       .  S
C1278      C1279   1.406       .  A
C1279      C1280   1.406       .  A
C1279      F1284   1.357       .  S
C1280      H1285   1.083       .  S
C1280      C1281   1.409       .  A
C1281      C1282   1.414       .  A
C1282      F1286   1.358       .  S
C1283      C1288   1.402       .  A
C1283      C1292   1.403       .  A
C1288      C1289   1.398       .  A
C1288      F1293   1.357       .  S
C1289      H1294   1.083       .  S
C1289      C1290   1.409       .  A
C1290      C1291   1.413       .  A
C1291      C1292   1.402       .  A
C1291      F1295   1.357       .  S
C1292      H1296   1.083       .  S
C1297      H1307   1.083       .  S
C1297      C1298   1.400       .  A
C1297      C1302   1.399       .  A
C1298      C1303   1.477       .  S
C1298      C1299   1.406       .  A
C1299      C1300   1.397       .  A
C1299      F1304   1.358       .  S
C1300      H1305   1.083       .  S
C1300      C1301   1.405       .  A
C1301      C1302   1.413       .  A
C1302      F1306   1.357       .  S
C1303      C1308   1.401       .  A
C1303      C1312   1.405       .  A
C1308      C1309   1.393       .  A
C1308      F1313   1.358       .  S
C1309      H1314   1.084       .  S
C1309      C1310   1.407       .  A
C1310      C1311   1.408       .  A
C1311      C1312   1.405       .  A
C1311      F1315   1.357       .  S
C1312      H1316   1.083       .  S
C1317      H1327   1.083       .  S
C1317      C1318   1.406   1_655  A
C1317      C1322   1.408       .  A
C1318      C1323   1.488       .  S
C1318      C1319   1.404       .  A
C1319      C1320   1.397       .  A
C1319      F1324   1.358       .  S
C1320      H1325   1.083       .  S
C1320      C1321   1.408   1_455  A
C1321      C1322   1.412       .  A
C1322      F1326   1.357       .  S
C1323      C1328   1.408       .  A
C1323      C1332   1.403       .  A
C1328      C1329   1.403       .  A
C1328      F1333   1.358       .  S
C1329      H1334   1.083       .  S
C1329      C1330   1.406       .  A
C1330      C1331   1.411       .  A
C1331      C1332   1.402       .  A
C1331      F1335   1.357       .  S
C1332      H1336   1.083   1_455  S
C1337      H1347   1.084       .  S
C1337      C1338   1.401       .  A
C1337      C1342   1.391       .  A
C1338      C1343   1.473       .  S
C1338      C1339   1.405       .  A
C1339      C1340   1.399       .  A
C1339      F1344   1.357       .  S
C1340      H1345   1.083       .  S
C1340      C1341   1.405       .  A
C1341      C1342   1.408       .  A
C1342      F1346   1.358       .  S
C1343      C1348   1.402       .  A
C1343      C1352   1.401       .  A
C1348      C1349   1.397       .  A
C1348      F1353   1.357       .  S
C1349      H1354   1.082       .  S
C1349      C1350   1.409       .  A
C1350      C1351   1.411       .  A
C1351      C1352   1.392       .  A
C1351      F1355   1.357       .  S
C1352      H1356   1.084       .  S
C1357      H1367   1.083       .  S
C1357      C1358   1.402       .  A
C1357      C1362   1.394       .  A
C1358      C1363   1.482       .  S
C1358      C1359   1.408       .  A
C1359      C1360   1.403       .  A
C1359      F1364   1.357       .  S
C1360      H1365   1.083       .  S
C1360      C1361   1.406       .  A
C1361      C1362   1.408       .  A
C1362      F1366   1.358       .  S
C1363      C1368   1.405       .  A
C1363      C1372   1.403       .  A
C1368      C1369   1.400       .  A
C1368      F1373   1.358       .  S
C1369      H1374   1.083       .  S
C1369      C1370   1.409       .  A
C1370      C1371   1.413       .  A
C1371      C1372   1.399       .  A
C1371      F1375   1.357       .  S
C1372      H1376   1.083       .  S
C1377      H1387   1.083       .  S
C1377      C1378   1.406       .  A
C1377      C1382   1.403       .  A
C1378      C1383   1.485       .  S
C1378      C1379   1.407       .  A
C1379      C1380   1.397       .  A
C1379      F1384   1.358       .  S
C1380      H1385   1.084       .  S
C1380      C1381   1.403       .  A
C1381      C1382   1.407       .  A
C1382      F1386   1.357       .  S
C1383      C1388   1.406       .  A
C1383      C1392   1.405       .  A
C1388      C1389   1.394       .  A
C1388      F1393   1.357       .  S
C1389      H1394   1.083       .  S
C1389      C1390   1.406       .  A
C1390      C1391   1.413       .  A
C1391      C1392   1.404       .  A
C1391      F1395   1.357       .  S
C1392      H1396   1.083       .  S
C1397      H1407   1.084       .  S
C1397      C1398   1.396       .  A
C1397      C1402   1.389       .  A
C1398      C1403   1.469       .  S
C1398      C1399   1.404       .  A
C1399      C1400   1.401       .  A
C1399      F1404   1.357       .  S
C1400      H1405   1.083   1_565  S
C1400      C1401   1.408       .  A
C1401      C1402   1.413       .  A
C1402      F1406   1.358       .  S
C1403      C1408   1.401       .  A
C1403      C1412   1.401       .  A
C1408      C1409   1.395       .  A
C1408      F1413   1.358       .  S
C1409      H1414   1.083       .  S
C1409      C1410   1.409       .  A
C1410      C1411   1.410       .  A
C1411      C1412   1.396       .  A
C1411      F1415   1.357       .  S
C1412      H1416   1.083       .  S
C1417      H1427   1.084       .  S
C1417      C1418   1.399       .  A
C1417      C1422   1.391       .  A
C1418      C1423   1.486       .  S
C1418      C1419   1.410       .  A
C1419      C1420   1.406       .  A
C1419      F1424   1.357       .  S
C1420      H1425   1.083   1_655  S
C1420      C1421   1.407       .  A
C1421      C1422   1.413       .  A
C1422      F1426   1.358       .  S
C1423      C1428   1.404       .  A
C1423      C1432   1.407       .  A
C1428      C1429   1.396       .  A
C1428      F1433   1.358       .  S
C1429      H1434   1.083       .  S
C1429      C1430   1.411       .  A
C1430      C1431   1.409       .  A
C1431      C1432   1.401       .  A
C1431      F1435   1.357       .  S
C1432      H1436   1.083       .  S
C1437      H1447   1.083       .  S
C1437      C1438   1.403       .  A
C1437      C1442   1.400       .  A
C1438      C1443   1.484       .  S
C1438      C1439   1.408       .  A
C1439      C1440   1.395       .  A
C1439      F1444   1.358       .  S
C1440      H1445   1.083       .  S
C1440      C1441   1.404       .  A
C1441      C1442   1.412       .  A
C1442      F1446   1.357       .  S
C1443      C1448   1.410       .  A
C1443      C1452   1.402       .  A
C1448      C1449   1.404       .  A
C1448      F1453   1.357       .  S
C1449      H1454   1.083       .  S
C1449      C1450   1.404       .  A
C1450      C1451   1.405       .  A
C1451      C1452   1.391       .  A
C1451      F1455   1.358       .  S
C1452      H1456   1.083       .  S
C1457      H1467   1.084       .  S
C1457      C1458   1.400       .  A
C1457      C1462   1.397       .  A
C1458      C1463   1.482       .  S
C1458      C1459   1.406       .  A
C1459      C1460   1.405       .  A
C1459      F1464   1.357       .  S
C1460      H1465   1.083   1_556  S
C1460      C1461   1.409       .  A
C1461      C1462   1.415       .  A
C1462      F1466   1.357       .  S
C1463      C1468   1.402       .  A
C1463      C1472   1.405       .  A
C1468      C1469   1.397       .  A
C1468      F1473   1.358       .  S
C1469      H1474   1.083       .  S
C1469      C1470   1.410       .  A
C1470      C1471   1.411       .  A
C1471      C1472   1.403       .  A
C1471      F1475   1.357       .  S
C1472      H1476   1.083       .  S
C1477      H1487   1.083       .  S
C1477      C1478   1.401       .  A
C1477      C1482   1.401       .  A
C1478      C1483   1.473       .  S
C1478      C1479   1.401       .  A
C1479      C1480   1.395       .  A
C1479      F1484   1.358       .  S
C1480      H1485   1.083       .  S
C1480      C1481   1.408       .  A
C1481      C1482   1.413       .  A
C1482      F1486   1.357       .  S
C1483      C1488   1.404       .  A
C1483      C1492   1.397       .  A
C1488      C1489   1.405       .  A
C1488      F1493   1.357       .  S
C1489      H1494   1.083   1_565  S
C1489      C1490   1.408       .  A
C1490      C1491   1.415       .  A
C1491      C1492   1.392       .  A
C1491      F1495   1.358       .  S
C1492      H1496   1.084       .  S
C1497      H1507   1.083       .  S
C1497      C1498   1.400       .  A
C1497      C1502   1.394       .  A
C1498      C1503   1.471       .  S
C1498      C1499   1.405       .  A
C1499      C1500   1.393       .  A
C1499      F1504   1.358       .  S
C1500      H1505   1.083       .  S
C1500      C1501   1.406       .  A
C1501      C1502   1.410       .  A
C1502      F1506   1.357       .  S
C1503      C1508   1.404       .  A
C1503      C1512   1.404       .  A
C1508      C1509   1.392       .  A
C1508      F1513   1.358       .  S
C1509      H1514   1.084       .  S
C1509      C1510   1.403       .  A
C1510      C1511   1.403       .  A
C1511      C1512   1.396       .  A
C1511      F1515   1.357       .  S
C1512      H1516   1.083       .  S
C1517      H1527   1.083       .  S
C1517      C1518   1.407       .  A
C1517      C1522   1.406       .  A
C1518      C1523   1.484       .  S
C1518      C1519   1.404       .  A
C1519      C1520   1.394       .  A
C1519      F1524   1.358       .  S
C1520      H1525   1.083       .  S
C1520      C1521   1.407       .  A
C1521      C1522   1.410       .  A
C1522      F1526   1.357   1_556  S
C1523      C1528   1.406       .  A
C1523      C1532   1.403       .  A
C1528      C1529   1.399       .  A
C1528      F1533   1.358       .  S
C1529      H1534   1.083       .  S
C1529      C1530   1.407       .  A
C1530      C1531   1.412       .  A
C1531      C1532   1.401       .  A
C1531      F1535   1.357       .  S
C1532      H1536   1.083       .  S
C1537      H1547   1.083       .  S
C1537      C1538   1.403       .  A
C1537      C1542   1.400       .  A
C1538      C1543   1.469       .  S
C1538      C1539   1.401       .  A
C1539      C1540   1.392       .  A
C1539      F1544   1.358       .  S
C1540      H1545   1.084       .  S
C1540      C1541   1.403       .  A
C1541      C1542   1.405       .  A
C1542      F1546   1.358       .  S
C1543      C1548   1.402       .  A
C1543      C1552   1.398       .  A
C1548      C1549   1.394       .  A
C1548      F1553   1.358       .  S
C1549      H1554   1.083       .  S
C1549      C1550   1.406       .  A
C1550      C1551   1.415       .  A
C1551      C1552   1.398       .  A
C1551      F1555   1.357       .  S
C1552      H1556   1.083       .  S
C1557      H1567   1.083       .  S
C1557      C1558   1.402       .  A
C1557      C1562   1.401       .  A
C1558      C1563   1.482       .  S
C1558      C1559   1.402       .  A
C1559      C1560   1.402       .  A
C1559      F1564   1.357       .  S
C1560      H1565   1.083       .  S
C1560      C1561   1.411       .  A
C1561      C1562   1.413       .  A
C1562      F1566   1.357       .  S
C1563      C1568   1.400       .  A
C1563      C1572   1.406       .  A
C1568      C1569   1.395       .  A
C1568      F1573   1.358       .  S
C1569      H1574   1.083       .  S
C1569      C1570   1.412       .  A
C1570      C1571   1.411       .  A
C1571      C1572   1.408       .  A
C1571      F1575   1.357       .  S
C1572      H1576   1.083       .  S
C1577      H1587   1.083       .  S
C1577      C1578   1.405       .  A
C1577      C1582   1.400       .  A
C1578      C1583   1.471       .  S
C1578      C1579   1.401       .  A
C1579      C1580   1.390       .  A
C1579      F1584   1.358       .  S
C1580      H1585   1.084       .  S
C1580      C1581   1.407       .  A
C1581      C1582   1.404       .  A
C1582      F1586   1.357       .  S
C1583      C1588   1.403       .  A
C1583      C1592   1.399       .  A
C1588      C1589   1.393       .  A
C1588      F1593   1.358       .  S
C1589      H1594   1.083       .  S
C1589      C1590   1.407       .  A
C1590      C1591   1.413       .  A
C1591      C1592   1.398       .  A
C1591      F1595   1.356       .  S
C1592      H1596   1.083       .  S
C1597      H1607   1.083       .  S
C1597      C1598   1.404       .  A
C1597      C1602   1.399       .  A
C1598      C1603   1.479       .  S
C1598      C1599   1.408       .  A
C1599      C1600   1.392       .  A
C1599      F1604   1.358       .  S
C1600      H1605   1.084       .  S
C1600      C1601   1.400       .  A
C1601      C1602   1.406       .  A
C1602      F1606   1.357       .  S
C1603      C1608   1.409       .  A
C1603      C1612   1.401       .  A
C1608      C1609   1.403       .  A
C1608      F1613   1.357       .  S
C1609      H1614   1.083       .  S
C1609      C1610   1.404       .  A
C1610      C1611   1.407       .  A
C1611      C1612   1.388       .  A
C1611      F1615   1.358       .  S
C1612      H1616   1.084       .  S
C1617      H1627   1.084       .  S
C1617      C1618   1.400       .  A
C1617      C1622   1.395       .  A
C1618      C1623   1.469       .  S
C1618      C1619   1.400       .  A
C1619      C1620   1.398       .  A
C1619      F1624   1.357       .  S
C1620      H1625   1.083       .  S
C1620      C1621   1.410       .  A
C1621      C1622   1.411       .  A
C1622      F1626   1.356       .  S
C1623      C1628   1.404       .  A
C1623      C1632   1.399       .  A
C1628      C1629   1.401       .  A
C1628      F1633   1.357       .  S
C1629      H1634   1.083       .  S
C1629      C1630   1.405       .  A
C1630      C1631   1.407       .  A
C1631      C1632   1.392       .  A
C1631      F1635   1.358       .  S
C1632      H1636   1.084       .  S
C1637      H1647   1.083       .  S
C1637      C1638   1.403       .  A
C1637      C1642   1.403       .  A
C1638      C1643   1.472       .  S
C1638      C1639   1.401       .  A
C1639      C1640   1.392       .  A
C1639      F1644   1.358       .  S
C1640      H1645   1.083       .  S
C1640      C1641   1.407       .  A
C1641      C1642   1.409       .  A
C1642      F1646   1.357       .  S
C1643      C1648   1.401       .  A
C1643      C1652   1.400       .  A
C1648      C1649   1.393       .  A
C1648      F1653   1.358       .  S
C1649      H1654   1.083       .  S
C1649      C1650   1.408       .  A
C1650      C1651   1.412       .  A
C1651      C1652   1.400       .  A
C1651      F1655   1.356       .  S
C1652      H1656   1.083       .  S
C1657      H1667   1.083       .  S
C1657      C1658   1.400       .  A
C1657      C1662   1.398       .  A
C1658      C1663   1.476       .  S
C1658      C1659   1.404       .  A
C1659      C1660   1.397       .  A
C1659      F1664   1.358       .  S
C1660      H1665   1.083       .  S
C1660      C1661   1.408       .  A
C1661      C1662   1.413       .  A
C1662      F1666   1.357       .  S
C1663      C1668   1.402       .  A
C1663      C1672   1.402       .  A
C1668      C1669   1.396       .  A
C1668      F1673   1.358       .  S
C1669      H1674   1.083       .  S
C1669      C1670   1.409       .  A
C1670      C1671   1.411       .  A
C1671      C1672   1.400       .  A
C1671      F1675   1.357       .  S
C1672      H1676   1.083       .  S
C1677      H1687   1.083       .  S
C1677      C1678   1.405       .  A
C1677      C1682   1.401       .  A
C1678      C1683   1.488       .  S
C1678      C1679   1.409       .  A
C1679      C1680   1.396       .  A
C1679      F1684   1.358       .  S
C1680      H1685   1.083       .  S
C1680      C1681   1.404       .  A
C1681      C1682   1.410       .  A
C1682      F1686   1.357       .  S
C1683      C1688   1.411       .  A
C1683      C1692   1.406       .  A
C1688      C1689   1.401       .  A
C1688      F1693   1.357       .  S
C1689      H1694   1.083       .  S
C1689      C1690   1.402       .  A
C1690      C1691   1.403       .  A
C1691      C1692   1.396       .  A
C1691      F1695   1.358       .  S
C1692      H1696   1.083       .  S
C1697      H1707   1.083       .  S
C1697      C1698   1.405       .  A
C1697      C1702   1.400       .  A
C1698      C1703   1.488       .  S
C1698      C1699   1.408       .  A
C1699      C1700   1.398       .  A
C1699      F1704   1.358       .  S
C1700      H1705   1.083       .  S
C1700      C1701   1.406       .  A
C1701      C1702   1.409       .  A
C1702      F1706   1.357       .  S
C1703      C1708   1.410       .  A
C1703      C1712   1.406       .  A
C1708      C1709   1.400       .  A
C1708      F1713   1.357       .  S
C1709      H1714   1.083       .  S
C1709      C1710   1.401       .  A
C1710      C1711   1.404       .  A
C1711      C1712   1.398       .  A
C1711      F1715   1.358       .  S
C1712      H1716   1.083       .  S
C1717      H1727   1.082       .  S
C1717      C1718   1.408       .  A
C1717      C1722   1.402       .  A
C1718      C1723   1.486       .  S
C1718      C1719   1.409       .  A
C1719      C1720   1.391       .  A
C1719      F1724   1.358       .  S
C1720      H1725   1.084       .  S
C1720      C1721   1.400       .  A
C1721      C1722   1.405       .  A
C1722      F1726   1.357       .  S
C1723      C1728   1.409       .  A
C1723      C1732   1.405       .  A
C1728      C1729   1.401       .  A
C1728      F1733   1.357       .  S
C1729      H1734   1.083       .  S
C1729      C1730   1.406       .  A
C1730      C1731   1.407       .  A
C1731      C1732   1.391       .  A
C1731      F1735   1.358       .  S
C1732      H1736   1.083       .  S
C1737      H1747   1.083       .  S
C1737      C1738   1.406       .  A
C1737      C1742   1.397       .  A
C1738      C1743   1.490       .  S
C1738      C1739   1.409       .  A
C1739      C1740   1.400       .  A
C1739      F1744   1.357       .  S
C1740      H1745   1.083       .  S
C1740      C1741   1.406       .  A
C1741      C1742   1.408       .  A
C1742      F1746   1.358       .  S
C1743      C1748   1.409       .  A
C1743      C1752   1.403       .  A
C1748      C1749   1.404       .  A
C1748      F1753   1.357       .  S
C1749      H1754   1.083       .  S
C1749      C1750   1.408       .  A
C1750      C1751   1.411       .  A
C1751      C1752   1.393       .  A
C1751      F1755   1.357       .  S
C1752      H1756   1.083       .  S
C1757      H1767   1.083       .  S
C1757      C1758   1.405       .  A
C1757      C1762   1.397       .  A
C1758      C1763   1.483       .  S
C1758      C1759   1.404       .  A
C1759      C1760   1.400       .  A
C1759      F1764   1.357       .  S
C1760      H1765   1.083       .  S
C1760      C1761   1.411       .  A
C1761      C1762   1.408       .  A
C1762      F1766   1.357       .  S
C1763      C1768   1.407       .  A
C1763      C1772   1.402       .  A
C1768      C1769   1.403       .  A
C1768      F1773   1.357       .  S
C1769      H1774   1.083       .  S
C1769      C1770   1.408       .  A
C1770      C1771   1.409       .  A
C1771      C1772   1.395       .  A
C1771      F1775   1.357       .  S
C1772      H1776   1.084       .  S
C1777      H1787   1.084       .  S
C1777      C1778   1.397       .  A
C1777      C1782   1.392       .  A
C1778      C1783   1.470       .  S
C1778      C1779   1.403       .  A
C1779      C1780   1.402       .  A
C1779      F1784   1.357       .  S
C1780      H1785   1.083       .  S
C1780      C1781   1.407       .  A
C1781      C1782   1.411       .  A
C1782      F1786   1.358       .  S
C1783      C1788   1.399       .  A
C1783      C1792   1.402       .  A
C1788      C1789   1.395       .  A
C1788      F1793   1.357       .  S
C1789      H1794   1.083       .  S
C1789      C1790   1.408       .  A
C1790      C1791   1.410       .  A
C1791      C1792   1.398       .  A
C1791      F1795   1.357       .  S
C1792      H1796   1.084       .  S
C1797      H1807   1.083       .  S
C1797      C1798   1.402       .  A
C1797      C1802   1.397       .  A
C1798      C1803   1.481       .  S
C1798      C1799   1.407       .  A
C1799      C1800   1.396       .  A
C1799      F1804   1.358       .  S
C1800      H1805   1.083       .  S
C1800      C1801   1.406       .  A
C1801      C1802   1.411       .  A
C1802      F1806   1.356       .  S
C1803      C1808   1.410       .  A
C1803      C1812   1.404       .  A
C1808      C1809   1.399       .  A
C1808      F1813   1.357       .  S
C1809      H1814   1.083       .  S
C1809      C1810   1.399       .  A
C1810      C1811   1.402       .  A
C1811      C1812   1.393       .  A
C1811      F1815   1.358       .  S
C1812      H1816   1.083       .  S
C1817      H1827   1.083       .  S
C1817      C1818   1.405       .  A
C1817      C1822   1.394       .  A
C1818      C1823   1.487       .  S
C1818      C1819   1.408       .  A
C1819      C1820   1.402       .  A
C1819      F1824   1.357       .  S
C1820      H1825   1.083       .  S
C1820      C1821   1.404       .  A
C1821      C1822   1.405       .  A
C1822      F1826   1.358       .  S
C1823      C1828   1.407       .  A
C1823      C1832   1.408       .  A
C1828      C1829   1.395       .  A
C1828      F1833   1.358       .  S
C1829      H1834   1.084       .  S
C1829      C1830   1.403       .  A
C1830      C1831   1.406       .  A
C1831      C1832   1.404       .  A
C1831      F1835   1.357       .  S
C1832      H1836   1.083       .  S
C1837      H1847   1.083       .  S
C1837      C1838   1.408       .  A
C1837      C1842   1.397       .  A
C1838      C1843   1.484       .  S
C1838      C1839   1.409       .  A
C1839      C1840   1.395       .  A
C1839      F1844   1.358       .  S
C1840      H1845   1.084       .  S
C1840      C1841   1.400       .  A
C1841      C1842   1.402       .  A
C1842      F1846   1.358       .  S
C1843      C1848   1.407       .  A
C1843      C1852   1.405       .  A
C1848      C1849   1.398       .  A
C1848      F1853   1.358       .  S
C1849      H1854   1.083       .  S
C1849      C1850   1.407       .  A
C1850      C1851   1.407       .  A
C1851      C1852   1.395       .  A
C1851      F1855   1.357       .  S
C1852      H1856   1.083       .  S
C1857      H1867   1.084       .  S
C1857      C1858   1.402       .  A
C1857      C1862   1.397       .  A
C1858      C1863   1.481       .  S
C1858      C1859   1.404       .  A
C1859      C1860   1.401       .  A
C1859      F1864   1.357       .  S
C1860      H1865   1.083       .  S
C1860      C1861   1.410       .  A
C1861      C1862   1.411       .  A
C1862      F1866   1.357       .  S
C1863      C1868   1.405       .  A
C1863      C1872   1.402       .  A
C1868      C1869   1.402       .  A
C1868      F1873   1.357       .  S
C1869      H1874   1.083       .  S
C1869      C1870   1.408       .  A
C1870      C1871   1.411       .  A
C1871      C1872   1.396       .  A
C1871      F1875   1.357       .  S
C1872      H1876   1.084       .  S
C1877      H1887   1.083       .  S
C1877      C1878   1.406       .  A
C1877      C1882   1.395       .  A
C1878      C1883   1.488       .  S
C1878      C1879   1.409       .  A
C1879      C1880   1.399       .  A
C1879      F1884   1.357       .  S
C1880      H1885   1.083       .  S
C1880      C1881   1.404       .  A
C1881      C1882   1.406       .  A
C1882      F1886   1.358       .  S
C1883      C1888   1.409       .  A
C1883      C1892   1.408       .  A
C1888      C1889   1.395       .  A
C1888      F1893   1.358       .  S
C1889      H1894   1.084       .  S
C1889      C1890   1.402       .  A
C1890      C1891   1.403       .  A
C1891      C1892   1.399       .  A
C1891      F1895   1.357       .  S
C1892      H1896   1.082       .  S
C1897      H1907   1.083       .  S
C1897      C1898   1.403       .  A
C1897      C1902   1.400       .  A
C1898      C1903   1.473       .  S
C1898      C1899   1.402       .  A
C1899      C1900   1.391       .  A
C1899      F1904   1.358       .  S
C1900      H1905   1.083       .  S
C1900      C1901   1.406       .  A
C1901      C1902   1.411       .  A
C1902      F1906   1.357       .  S
C1903      C1908   1.405       .  A
C1903      C1912   1.402       .  A
C1908      C1909   1.394       .  A
C1908      F1913   1.358       .  S
C1909      H1914   1.084       .  S
C1909      C1910   1.403       .  A
C1910      C1911   1.407       .  A
C1911      C1912   1.398       .  A
C1911      F1915   1.357       .  S
C1912      H1916   1.083       .  S
C1917      H1927   1.083       .  S
C1917      C1918   1.407       .  A
C1917      C1922   1.397       .  A
C1918      C1923   1.484       .  S
C1918      C1919   1.404       .  A
C1919      C1920   1.396       .  A
C1919      F1924   1.357       .  S
C1920      H1925   1.083       .  S
C1920      C1921   1.410       .  A
C1921      C1922   1.408       .  A
C1922      F1926   1.357       .  S
C1923      C1928   1.408       .  A
C1923      C1932   1.401       .  A
C1928      C1929   1.401       .  A
C1928      F1933   1.357       .  S
C1929      H1934   1.083       .  S
C1929      C1930   1.407       .  A
C1930      C1931   1.413       .  A
C1931      C1932   1.392       .  A
C1931      F1935   1.357       .  S
C1932      H1936   1.084       .  S
C1937      H1947   1.083       .  S
C1937      C1938   1.403       .  A
C1937      C1942   1.391       .  A
C1938      C1943   1.483       .  S
C1938      C1939   1.408       .  A
C1939      C1940   1.402       .  A
C1939      F1944   1.357       .  S
C1940      H1945   1.083       .  S
C1940      C1941   1.406       .  A
C1941      C1942   1.407       .  A
C1942      F1946   1.358       .  S
C1943      C1948   1.409       .  A
C1943      C1952   1.404       .  A
C1948      C1949   1.396       .  A
C1948      F1953   1.358       .  S
C1949      H1954   1.083       .  S
C1949      C1950   1.401       .  A
C1950      C1951   1.406       .  A
C1951      C1952   1.398       .  A
C1951      F1955   1.358       .  S
C1952      H1956   1.083       .  S
C1957      H1967   1.083       .  S
C1957      C1958   1.402       .  A
C1957      C1962   1.401       .  A
C1958      C1963   1.478       .  S
C1958      C1959   1.404       .  A
C1959      C1960   1.393       .  A
C1959      F1964   1.358       .  S
C1960      H1965   1.083       .  S
C1960      C1961   1.406       .  A
C1961      C1962   1.414       .  A
C1962      F1966   1.357       .  S
C1963      C1968   1.402       .  A
C1963      C1972   1.404       .  A
C1968      C1969   1.391       .  A
C1968      F1973   1.358       .  S
C1969      H1974   1.083       .  S
C1969      C1970   1.408       .  A
C1970      C1971   1.411       .  A
C1971      C1972   1.403       .  A
C1971      F1975   1.357       .  S
C1972      H1976   1.083       .  S
C1977      H1987   1.084       .  S
C1977      C1978   1.404       .  A
C1977      C1982   1.395       .  A
C1978      C1983   1.479       .  S
C1978      C1979   1.404       .  A
C1979      C1980   1.399       .  A
C1979      F1984   1.357       .  S
C1980      H1985   1.083       .  S
C1980      C1981   1.407       .  A
C1981      C1982   1.407       .  A
C1982      F1986   1.358       .  S
C1983      C1988   1.406       .  A
C1983      C1992   1.399       .  A
C1988      C1989   1.404       .  A
C1988      F1993   1.357       .  S
C1989      H1994   1.083       .  S
C1989      C1990   1.409       .  A
C1990      C1991   1.412       .  A
C1991      C1992   1.390       .  A
C1991      F1995   1.357       .  S
C1992      H1996   1.084       .  S
C1997      H2007   1.084       .  S
C1997      C1998   1.400       .  A
C1997      C2002   1.393       .  A
C1998      C2003   1.471       .  S
C1998      C1999   1.402       .  A
C1999      C2000   1.401       .  A
C1999      F2004   1.358       .  S
C2000      H2005   1.083       .  S
C2000      C2001   1.410       .  A
C2001      C2002   1.408       .  A
C2002      F2006   1.357       .  S
C2003      C2008   1.404       .  A
C2003      C2012   1.397       .  A
C2008      C2009   1.403       .  A
C2008      F2013   1.357       .  S
C2009      H2014   1.083       .  S
C2009      C2010   1.409       .  A
C2010      C2011   1.411       .  A
C2011      C2012   1.390       .  A
C2011      F2015   1.356       .  S
C2012      H2016   1.084       .  S
