geometry optimzed in LAMMPS
_audit_creation_date              2020-11-30 
_audit_creation_method            'lammps2cif' 
_symmetry_space_group_name_H-M    'P1' 
_symmetry_Int_Tables_number       1 
_symmetry_cell_setting            triclinic 
loop_ 
_symmetry_equiv_pos_as_xyz 
  x,y,z 
_cell_length_a                    36.51457018817495 
_cell_length_b                    37.9960731099775 
_cell_length_c                    20.845574992907544 
_cell_angle_alpha                 89.05666465939449 
_cell_angle_beta                  87.65196187192879 
_cell_angle_gamma                 90.78104286642831 
loop_ 
_atom_site_label 
_atom_site_type_symbol 
_atom_site_fract_x 
_atom_site_fract_y 
_atom_site_fract_z 
_atom_site_charge 
C1          C  0.50457459  0.45124683  0.37807659    -0.02420
C2          C  0.99703928  0.53164916  0.12568178    -0.02420
In3        In  0.40643979  0.19748116  0.12485977     1.36870
C4          C  0.47969024  0.19318796  0.12857042     0.77640
O5          O  0.41361065  0.22003019  0.02500513    -0.60800
O6          O  0.36346880  0.22846675  0.07799322    -0.51710
C7          C  0.36915072  0.13678932  0.12074241     0.70310
O8          O  0.38296557  0.14769192  0.17140760    -0.46570
C9          C  0.38175041  0.23425958  0.22332167     0.75010
O10         O  0.46034961  0.16878795  0.10694711    -0.58430
O11         O  0.39412563  0.24857106  0.17195021    -0.48520
O12         O  0.46171646  0.21896102  0.14871151    -0.54860
C13         C  0.38237607  0.23393555  0.02699260     0.85190
O14         O  0.37609633  0.15625151  0.07210382    -0.56750
O15         O  0.38324743  0.20108252  0.22546457    -0.60050
In16       In  0.34328508  0.29061882  0.37752409     1.36870
C17         C  0.27005317  0.29270178  0.37697062     0.77640
O18         O  0.36607692  0.28777946  0.27572377    -0.60800
O19         O  0.35408015  0.24017245  0.32723450    -0.51710
C20         C  0.38149529  0.34987582  0.39097096     0.70310
O21         O  0.36663513  0.34268612  0.33906026    -0.46570
C22         C  0.36875116  0.25478983  0.47436755     0.75010
O23         O  0.28963667  0.32017763  0.37110632    -0.58430
O24         O  0.38645347  0.25843559  0.42145778    -0.48520
O25         O  0.28773077  0.26490918  0.38318379    -0.54860
C26         C  0.36683449  0.25463479  0.27650522     0.85190
O27         O  0.37383002  0.32870050  0.43675712    -0.56750
O28         O  0.33847414  0.27055775  0.47860090    -0.60050
In29       In  0.09334358  0.19546270  0.13061653     1.36870
C30         C  0.01988272  0.19274354  0.12961333     0.77640
O31         O  0.09243477  0.20964644  0.23400543    -0.60800
O32         O  0.13598516  0.22960799  0.17180513    -0.51710
C33         C  0.13489516  0.13804493  0.13051399     0.70310
O34         O  0.11480969  0.14571478  0.17893671    -0.46570
C35         C  0.11331563  0.23456715  0.02947900     0.75010
O36         O  0.03923744  0.16692495  0.11329069    -0.58430
O37         O  0.10851320  0.24753300  0.08422814    -0.48520
O38         O  0.03790251  0.21907034  0.14666841    -0.54860
C39         C  0.12069114  0.22910549  0.22691805     0.85190
O40         O  0.13121841  0.15818631  0.08285796    -0.56750
O41         O  0.10493002  0.20239246  0.02553689    -0.60050
In42       In  0.15684247  0.28881435  0.37260161     1.36870
C43         C  0.22997401  0.29223605  0.37629458     0.77640
O44         O  0.13578299  0.28724158  0.47586226    -0.60800
O45         O  0.13808385  0.23974399  0.42350320    -0.51710
C46         C  0.12030286  0.34805127  0.35731848     0.70310
O47         O  0.13469730  0.33974463  0.40934517    -0.46570
C48         C  0.13399012  0.25058711  0.27807786     0.75010
O49         O  0.21119765  0.31875124  0.36361572    -0.58430
O50         O  0.11582086  0.25362852  0.33018451    -0.48520
O51         O  0.21152090  0.26456720  0.38767669    -0.54860
C52         C  0.12917145  0.25456638  0.47502032     0.85190
O53         O  0.12648851  0.32699010  0.31231077    -0.56750
O54         O  0.16372479  0.26807934  0.27308994    -0.60050
C55         C  0.25048340  0.94403904  0.37092967    -0.02420
C56         C  0.25162236  0.02996598  0.11717797    -0.02420
In57       In  0.34271722  0.68919194  0.13237459     1.36870
C58         C  0.26952222  0.68835186  0.12946393     0.77640
O59         O  0.33546733  0.71280921  0.22998682    -0.60800
O60         O  0.38549041  0.72239470  0.17623425    -0.51710
C61         C  0.37461626  0.62700305  0.14424741     0.70310
O62         O  0.35778987  0.63541465  0.09471873    -0.46570
C63         C  0.37309364  0.72369302  0.03231261     0.75010
O64         O  0.28661475  0.66825142  0.16580353    -0.58430
O65         O  0.36001742  0.73881110  0.08121741    -0.48520
O66         O  0.28969198  0.70790827  0.09347799    -0.54860
C67         C  0.36665639  0.72760640  0.22688045     0.85190
O68         O  0.37279570  0.64944415  0.18791782    -0.56750
O69         O  0.36948624  0.69055154  0.03303123    -0.60050
In70       In  0.40841362  0.78217787  0.37531545     1.36870
C71         C  0.48116048  0.78629322  0.37661730     0.77640
O72         O  0.39423342  0.77670644  0.48007306    -0.60800
O73         O  0.39868540  0.72998054  0.42557392    -0.51710
C74         C  0.36839283  0.84002127  0.36753181     0.70310
O75         O  0.39731103  0.83702573  0.33289533    -0.46570
C76         C  0.38061489  0.74846003  0.27854277     0.75010
O77         O  0.46092765  0.80740899  0.40718307    -0.58430
O78         O  0.36582658  0.74761014  0.33399009    -0.48520
O79         O  0.46428128  0.76340348  0.34607684    -0.54860
C80         C  0.38975460  0.74377740  0.47832969     0.85190
O81         O  0.36248585  0.81522177  0.40726414    -0.56750
O82         O  0.40892659  0.76775166  0.27158855    -0.60050
In83       In  0.15690251  0.69461353  0.12879312     1.36870
C84         C  0.22944376  0.68978185  0.12958028     0.77640
O85         O  0.15957700  0.71008931  0.02462696    -0.60800
O86         O  0.11682291  0.73029789  0.08533776    -0.51710
C87         C  0.11464962  0.63753113  0.11772552     0.70310
O88         O  0.14780286  0.63762153  0.09811958    -0.46570
C89         C  0.13990150  0.73187488  0.23082757     0.75010
O90         O  0.20851903  0.67064959  0.16559866    -0.58430
O91         O  0.15113802  0.74607561  0.17860525    -0.48520
O92         O  0.21329309  0.71100990  0.09382618    -0.54860
C93         C  0.13184304  0.72941496  0.03020129     0.85190
O94         O  0.10479469  0.66525679  0.14479151    -0.56750
O95         O  0.14143514  0.69872915  0.23302502    -0.60050
In96       In  0.09418186  0.78692912  0.38044898     1.36870
C97         C  0.02118977  0.78751904  0.37680015     0.77640
O98         O  0.12210392  0.78523406  0.28241473    -0.60800
O99         O  0.10942712  0.73701761  0.33272880    -0.51710
C100        C  0.12499952  0.85023798  0.38895850     0.70310
O101        O  0.11030801  0.84024335  0.33845757    -0.46570
C102        C  0.11831446  0.74992257  0.47728260     0.75010
O103        O  0.03879416  0.80863109  0.41002542    -0.58430
O104        O  0.13778327  0.75667072  0.42740836    -0.48520
O105        O  0.04077054  0.76689167  0.34427456    -0.54860
C106        C  0.12389515  0.75202097  0.28353432     0.85190
O107        O  0.12205555  0.82841340  0.43501128    -0.56750
O108        O  0.08654274  0.76259067  0.47839187    -0.60050
C109        C  0.28105341  0.91549302  0.36228262    -0.00090
C110        C  0.31772926  0.92696269  0.34738412    -0.11970
C111        C  0.34730457  0.90327029  0.34645585     0.02140
C112        C  0.34042162  0.86731084  0.35970931    -0.00180
C113        C  0.30434011  0.85531100  0.36611788    -0.11910
C114        C  0.27498028  0.87797495  0.36364188     0.02030
H115        H  0.32354542  0.95488748  0.34095143     0.15010
H116        H  0.29891072  0.82712613  0.37027099     0.15010
C117        C  0.24090014  0.85980443  0.35217508     0.36660
C118        C  0.38430156  0.91679777  0.33814289     0.36570
N119        N  0.21511660  0.84339980  0.34065540    -0.43680
N120        N  0.41403985  0.92761097  0.33197959    -0.43680
C121        C  0.21185344  0.92590206  0.38293457    -0.00090
C122        C  0.18382581  0.92905443  0.33802964    -0.11970
C123        C  0.15286497  0.90681987  0.34127335     0.02140
C124        C  0.14782164  0.88259363  0.39274231    -0.00180
C125        C  0.17072880  0.88516992  0.44468708    -0.11910
C126        C  0.20278461  0.90565441  0.44019878     0.02030
H127        H  0.18628155  0.94735601  0.29792986     0.15010
H128        H  0.16615511  0.86775694  0.48610863     0.15010
C129        C  0.22757001  0.90059215  0.49175971     0.36660
C130        C  0.12770535  0.90845177  0.28969333     0.36570
N131        N  0.24641618  0.89525578  0.53405751    -0.43680
N132        N  0.10762311  0.90984324  0.24822508    -0.43680
C133        C  0.25499374  0.96751985  0.43393144    -0.00090
C134        C  0.22454014  0.98845210  0.45237845    -0.11970
C135        C  0.21978548  0.00358431  0.01351328     0.02140
C136        C  0.24922521  0.00518390  0.05648662    -0.00180
C137        C  0.27942594  0.98406659  0.03969788    -0.11910
C138        C  0.28227741  0.96473758  0.48215851     0.02030
H139        H  0.20187768  0.99012186  0.42045227     0.15010
H140        H  0.30152935  0.98264597  0.07290988     0.15010
C141        C  0.31245244  0.94075961  0.48112619     0.36660
C142        C  0.18266792  0.01298863  0.03178651     0.36570
N143        N  0.33692955  0.92196284  0.48569604    -0.43680
N144        N  0.15254046  0.01979041  0.04519973    -0.43680
C145        C  0.25149244  0.96639601  0.30490699    -0.00090
C146        C  0.25128767  0.00354861  0.30400699    -0.11970
C147        C  0.24934769  0.02387583  0.24663262     0.02140
C148        C  0.24961462  0.00793111  0.18412249    -0.00180
C149        C  0.24902710  0.97089146  0.18542843    -0.11910
C150        C  0.25080528  0.95058725  0.24260098     0.02030
H151        H  0.25248952  0.01762517  0.34842524     0.15010
H152        H  0.24731898  0.95672880  0.14116893     0.15010
C153        C  0.25193326  0.91316220  0.23259238     0.36660
C154        C  0.24850056  0.06167674  0.25449990     0.36570
N155        N  0.25344917  0.88376068  0.21924066    -0.43680
N156        N  0.24777280  0.09183975  0.26126465    -0.43680
C157        C  0.21910336  0.05746142  0.11752064    -0.00090
C158        C  0.18934126  0.05460852  0.16420263    -0.11970
C159        C  0.16213964  0.08037893  0.17099603     0.02140
C160        C  0.16230644  0.10937593  0.12833208    -0.00180
C161        C  0.18900117  0.11090762  0.07851165    -0.11910
C162        C  0.21544217  0.08495857  0.07032984     0.02030
H163        H  0.18638640  0.03182782  0.19577908     0.15010
H164        H  0.18803124  0.13192527  0.04268514     0.15010
C165        C  0.23071376  0.08451830  0.00568382     0.36660
C166        C  0.13393923  0.07578355  0.22110469     0.36570
N167        N  0.23884763  0.08610448  0.45140886    -0.43680
N168        N  0.11138413  0.07206397  0.26137763    -0.43680
C169        C  0.29005490  0.05089915  0.11196419    -0.00090
C170        C  0.31297987  0.05381781  0.16526846    -0.11970
C171        C  0.33836089  0.08158617  0.17040669     0.02140
C172        C  0.34534404  0.10482236  0.11795993    -0.00180
C173        C  0.32981370  0.09663529  0.05975154    -0.11910
C174        C  0.30476677  0.06860824  0.05527354     0.02030
H175        H  0.31146859  0.03507996  0.20453351     0.15010
H176        H  0.33859936  0.11116241  0.01646198     0.15130
C177        C  0.30349135  0.05405211  0.99189942     0.36660
C178        C  0.35623463  0.08555391  0.23046874     0.36570
N179        N  0.30423188  0.04310722  0.44036995    -0.43680
N180        N  0.37024219  0.08874124  0.27888563    -0.43680
C181        C  0.02871158  0.55943813  0.11211481    -0.00090
C182        C  0.06566605  0.54844972  0.11383898    -0.11970
C183        C  0.09493524  0.57294789  0.11362032     0.02140
C184        C  0.08768162  0.60907130  0.10790514    -0.00180
C185        C  0.05229517  0.61951603  0.09457217    -0.11910
C186        C  0.02335661  0.59537827  0.09338889     0.02030
H187        H  0.07148641  0.52082102  0.12081579     0.15010
H188        H  0.04721605  0.64712228  0.08442552     0.15010
C189        C  0.49003572  0.60906677  0.06815374     0.36660
C190        C  0.13147806  0.56059939  0.12351111     0.36570
N191        N  0.46411365  0.62101476  0.04677969    -0.43680
N192        N  0.16079479  0.55067588  0.13146964    -0.43680
C193        C  0.45981346  0.55068958  0.13980510    -0.00090
C194        C  0.42853290  0.54490798  0.10297175    -0.11970
C195        C  0.39892535  0.56815137  0.10513298     0.02140
C196        C  0.39838908  0.59585768  0.14922016    -0.00180
C197        C  0.42540229  0.59712923  0.19470531    -0.11910
C198        C  0.45612749  0.57586163  0.18996758     0.02030
H199        H  0.42758587  0.52354516  0.06952856     0.15010
H200        H  0.42468004  0.61759275  0.23044872     0.15010
C201        C  0.48498409  0.58485197  0.23242523     0.36660
C202        C  0.37042459  0.56378733  0.05984298     0.36570
N203        N  0.50725502  0.59364627  0.26698089    -0.43680
N204        N  0.34773296  0.56028521  0.02321658    -0.43680
C205        C  0.04087982  0.43038991  0.36571097    -0.00090
C206        C  0.03985009  0.40468659  0.31718538    -0.11970
C207        C  0.06646973  0.37883200  0.31058862     0.02140
C208        C  0.09623297  0.37877856  0.35140743    -0.00180
C209        C  0.10077702  0.40705978  0.39250819    -0.11910
C210        C  0.07439674  0.43337296  0.39883342     0.02030
H211        H  0.01600253  0.40246525  0.28821935     0.15010
H212        H  0.12483267  0.40808750  0.42138852     0.15010
C213        C  0.08407193  0.46203688  0.43968057     0.36660
C214        C  0.06015798  0.35072282  0.26631417     0.36570
N215        N  0.09309073  0.48405096  0.47366793    -0.43680
N216        N  0.05486432  0.32815611  0.23108547    -0.43680
C217        C  0.47131788  0.42471256  0.39020869    -0.00090
C218        C  0.43523248  0.43650151  0.37996947    -0.11970
C219        C  0.40534706  0.41285835  0.37838468     0.02140
C220        C  0.40994229  0.37745586  0.39600420    -0.00180
C221        C  0.44376084  0.36675654  0.41736445    -0.11910
C222        C  0.47417255  0.38946530  0.41526933     0.02030
H223        H  0.43085241  0.46379998  0.36726026     0.15010
H224        H  0.44679951  0.33973325  0.43393688     0.15010
C225        C  0.50662417  0.37493145  0.44223350     0.36660
C226        C  0.37050290  0.42535774  0.35790745     0.36570
N227        N  0.03187054  0.36239262  0.46490280    -0.43680
N228        N  0.34261100  0.43533268  0.34109340    -0.43680
C229        C  0.00282488  0.47365174  0.44062648    -0.00090
C230        C  0.01245505  0.45731876  0.49879477    -0.11970
C231        C  0.01308746  0.47494421  0.05722223     0.02140
C232        C  0.99830213  0.50928417  0.06277803    -0.00180
C233        C  0.48762758  0.52536181  0.00482072    -0.11910
C234        C  0.48759023  0.50776165  0.44609008     0.02030
H235        H  0.02299058  0.43098443  0.49801943     0.15010
H236        H  0.47731206  0.55183815  0.00557137     0.15010
C237        C  0.46839531  0.52481833  0.39528103     0.36660
C238        C  0.03279981  0.45753992  0.10712978     0.36570
N239        N  0.45237734  0.53871743  0.35558072    -0.43680
N240        N  0.04899280  0.44317239  0.14608538    -0.43680
C241        C  0.00104040  0.50896618  0.18889333    -0.00090
C242        C  0.02677048  0.51765956  0.23514789    -0.11970
C243        C  0.02706949  0.50115620  0.29587675     0.02140
C244        C  0.00220533  0.47306849  0.31315583    -0.00180
C245        C  0.47871452  0.46233273  0.26434180    -0.11910
C246        C  0.47623124  0.48084734  0.20591948     0.02030
H247        H  0.04544971  0.53961992  0.22710794     0.15010
H248        H  0.46234658  0.43854279  0.26987376     0.15010
C249        C  0.44867297  0.46879840  0.16320165     0.36660
C250        C  0.05186246  0.51640472  0.34011199     0.36570
N251        N  0.42664250  0.45852304  0.12950599    -0.43680
N252        N  0.07143692  0.53111088  0.37310525    -0.43680
C253        C  0.50459127  0.45125448  0.87808219    -0.02420
C254        C  0.99699233  0.53164005  0.62567924    -0.02420
In255      In  0.40644753  0.19747757  0.62488290     1.36870
C256        C  0.47969931  0.19317841  0.62859079     0.77640
O257        O  0.41361222  0.22002001  0.52502097    -0.60800
O258        O  0.36347166  0.22845597  0.57801207    -0.51710
C259        C  0.36915567  0.13678624  0.62077356     0.70310
O260        O  0.38296397  0.14769273  0.67144214    -0.46570
C261        C  0.38176166  0.23426801  0.72333271     0.75010
O262        O  0.46035466  0.16877507  0.60698912    -0.58430
O263        O  0.39414203  0.24857380  0.67195955    -0.48520
O264        O  0.46172894  0.21895816  0.64871202    -0.54860
C265        C  0.38237591  0.23392200  0.52700744     0.85190
O266        O  0.37610937  0.15624392  0.57213180    -0.56750
O267        O  0.38325347  0.20109069  0.72548463    -0.60050
In268      In  0.34329288  0.29064116  0.87751795     1.36870
C269        C  0.27006025  0.29271914  0.87695960     0.77640
O270        O  0.36609450  0.28779403  0.77572248    -0.60800
O271        O  0.35408133  0.24019142  0.82723496    -0.51710
C272        C  0.38150233  0.34989789  0.89098763     0.70310
O273        O  0.36664939  0.34270968  0.83906970    -0.46570
C274        C  0.36875604  0.25480937  0.97435729     0.75010
O275        O  0.28964286  0.32019337  0.87103849    -0.58430
O276        O  0.38645914  0.25845471  0.92144789    -0.48520
O277        O  0.28773903  0.26493166  0.88323078    -0.54860
C278        C  0.36684472  0.25464912  0.77650817     0.85190
O279        O  0.37382901  0.32872233  0.93676978    -0.56750
O280        O  0.33848179  0.27058204  0.97859396    -0.60050
In281      In  0.09335492  0.19544434  0.63062304     1.36870
C282        C  0.01989240  0.19273034  0.62963080     0.77640
O283        O  0.09244259  0.20963683  0.73400822    -0.60800
O284        O  0.13600491  0.22957936  0.67181383    -0.51710
C285        C  0.13490450  0.13802399  0.63050525     0.70310
O286        O  0.11482435  0.14569545  0.67893381    -0.46570
C287        C  0.11331987  0.23455429  0.52948875     0.75010
O288        O  0.03924412  0.16690682  0.61332322    -0.58430
O289        O  0.10853169  0.24751476  0.58424484    -0.48520
O290        O  0.03791592  0.21905892  0.64666700    -0.54860
C291        C  0.12070492  0.22908801  0.72692194     0.85190
O292        O  0.13122397  0.15816553  0.58285043    -0.56750
O293        O  0.10492551  0.20238192  0.52553954    -0.60050
In294      In  0.15684972  0.28881590  0.87258794     1.36870
C295        C  0.22998092  0.29224866  0.87628272     0.77640
O296        O  0.13577410  0.28725297  0.97584021    -0.60800
O297        O  0.13810129  0.23974762  0.92350634    -0.51710
C298        C  0.12031153  0.34805264  0.85730048     0.70310
O299        O  0.13471717  0.33975264  0.90932047    -0.46570
C300        C  0.13400258  0.25057525  0.77807566     0.75010
O301        O  0.21120292  0.31875385  0.86354459    -0.58430
O302        O  0.11582764  0.25362908  0.83017308    -0.48520
O303        O  0.21152947  0.26458457  0.88772327    -0.54860
C304        C  0.12917322  0.25457562  0.97501076     0.85190
O305        O  0.12648458  0.32698383  0.81229998    -0.56750
O306        O  0.16374083  0.26806169  0.77308992    -0.60050
C307        C  0.25041193  0.94403907  0.87095393    -0.02420
C308        C  0.25163811  0.02994854  0.61717977    -0.02420
In309      In  0.34269148  0.68920507  0.63243475     1.36870
C310        C  0.26950032  0.68832021  0.62946276     0.77640
O311        O  0.33536925  0.71294689  0.72993816    -0.60800
O312        O  0.38546687  0.72238408  0.67632960    -0.51710
C313        C  0.37457226  0.62700651  0.64435605     0.70310
O314        O  0.35770517  0.63539467  0.59486024    -0.46570
C315        C  0.37311213  0.72370415  0.53240511     0.75010
O316        O  0.28658892  0.66836177  0.66606382    -0.58430
O317        O  0.35990246  0.73883293  0.58119717    -0.48520
O318        O  0.28967387  0.70774749  0.59324103    -0.54860
C319        C  0.36658643  0.72768739  0.72688764     0.85190
O320        O  0.37278936  0.64947134  0.68798981    -0.56750
O321        O  0.36960642  0.69055451  0.53321080    -0.60050
In322      In  0.40836961  0.78225108  0.87529192     1.36870
C323        C  0.48112040  0.78633914  0.87658474     0.77640
O324        O  0.39430209  0.77669052  0.98007601    -0.60800
O325        O  0.39849746  0.73002037  0.92537583    -0.51710
C326        C  0.36840974  0.84012934  0.86757805     0.70310
O327        O  0.39716416  0.83699356  0.83256623    -0.46570
C328        C  0.38053376  0.74856842  0.77852399     0.75010
O329        O  0.46090091  0.80754154  0.90696399    -0.58430
O330        O  0.36563732  0.74787484  0.83389356    -0.48520
O331        O  0.46422689  0.76338166  0.84623183    -0.54860
C332        C  0.38970563  0.74377867  0.97822721     0.85190
O333        O  0.36265331  0.81546644  0.90765230    -0.56750
O334        O  0.40895518  0.76771349  0.77163267    -0.60050
In335      In  0.15687928  0.69459050  0.62879272     1.36870
C336        C  0.22942086  0.68974580  0.62956304     0.77640
O337        O  0.15951875  0.70999895  0.52459397    -0.60800
O338        O  0.11692970  0.73043083  0.58539864    -0.51710
C339        C  0.11459079  0.63753277  0.61764059     0.70310
O340        O  0.14780981  0.63753393  0.59843526    -0.46570
C341        C  0.13986009  0.73182252  0.73085480     0.75010
O342        O  0.20849763  0.67073783  0.66580888    -0.58430
O343        O  0.15119987  0.74603135  0.67869973    -0.48520
O344        O  0.21326825  0.71085259  0.59357686    -0.54860
C345        C  0.13187359  0.72943846  0.53021369     0.85190
O346        O  0.10467874  0.66534347  0.64434499    -0.56750
O347        O  0.14130153  0.69867071  0.73298947    -0.60050
In348      In  0.09413718  0.78690371  0.88044467     1.36870
C349        C  0.02114922  0.78754216  0.87677157     0.77640
O350        O  0.12210645  0.78519047  0.78245233    -0.60800
O351        O  0.10932418  0.73697904  0.83270430    -0.51710
C352        C  0.12493902  0.85021778  0.88893866     0.70310
O353        O  0.11028980  0.84019801  0.83841351    -0.46570
C354        C  0.11827692  0.74990178  0.97727804     0.75010
O355        O  0.03876752  0.80868074  0.90992191    -0.58430
O356        O  0.13776905  0.75671799  0.92745914    -0.48520
O357        O  0.04071482  0.76686374  0.84433104    -0.54860
C358        C  0.12384676  0.75197465  0.78354874     0.85190
O359        O  0.12195972  0.82841484  0.93502462    -0.56750
O360        O  0.08647801  0.76250759  0.97834168    -0.60050
C361        C  0.28099646  0.91550903  0.86231573    -0.00090
C362        C  0.31766012  0.92700555  0.84737348    -0.11970
C363        C  0.34725553  0.90333925  0.84643512     0.02140
C364        C  0.34040913  0.86738368  0.85976264    -0.00180
C365        C  0.30434286  0.85535167  0.86625764    -0.11910
C366        C  0.27495771  0.87798697  0.86375988     0.02030
H367        H  0.32345151  0.95493244  0.84090230     0.15010
H368        H  0.29894901  0.82716337  0.87049187     0.15010
C369        C  0.24088719  0.85977932  0.85238816     0.36660
C370        C  0.38423949  0.91689065  0.83804483     0.36570
N371        N  0.21511139  0.84334165  0.84095263    -0.43680
N372        N  0.41396773  0.92772314  0.83181778    -0.43680
C373        C  0.21178009  0.92589924  0.88294762    -0.00090
C374        C  0.18376455  0.92903712  0.83801536    -0.11970
C375        C  0.15281219  0.90679169  0.84123467     0.02140
C376        C  0.14775427  0.88257857  0.89272022    -0.00180
C377        C  0.17063803  0.88517756  0.94469334    -0.11910
C378        C  0.20269170  0.90566785  0.94022318     0.02030
H379        H  0.18622429  0.94733482  0.79791073     0.15010
H380        H  0.16605055  0.86777640  0.98612772     0.15010
C381        C  0.22745215  0.90063025  0.99182789     0.36660
C382        C  0.12767681  0.90839996  0.78961497     0.36570
N383        N  0.24627421  0.89531358  0.03416725    -0.43680
N384        N  0.10761534  0.90977126  0.74811332    -0.43680
C385        C  0.25492814  0.96752110  0.93394735    -0.00090
C386        C  0.22448562  0.98846653  0.95238921    -0.11970
C387        C  0.21982440  0.00355471  0.51351162     0.02140
C388        C  0.24925795  0.00516269  0.55649192    -0.00180
C389        C  0.27946917  0.98405791  0.53970639    -0.11910
C390        C  0.28221441  0.96473165  0.98216789     0.02030
H391        H  0.20182092  0.99013714  0.92046760     0.15010
H392        H  0.30156899  0.98264285  0.57292638     0.15010
C393        C  0.31235986  0.94071870  0.98116186     0.36660
C394        C  0.18269989  0.01293408  0.53178821     0.36570
N395        N  0.33680911  0.92188978  0.98574587    -0.43680
N396        N  0.15256795  0.01971598  0.54520739    -0.43680
C397        C  0.25142828  0.96639203  0.80492822    -0.00090
C398        C  0.25125960  0.00354454  0.80401540    -0.11970
C399        C  0.24935058  0.02386755  0.74663175     0.02140
C400        C  0.24962334  0.00791683  0.68412646    -0.00180
C401        C  0.24901132  0.97087616  0.68544245    -0.11910
C402        C  0.25074044  0.95057582  0.74263016     0.02030
H403        H  0.25246214  0.01762386  0.84843086     0.15010
H404        H  0.24730942  0.95671119  0.64118331     0.15010
C405        C  0.25178605  0.91314327  0.73266639     0.36660
C406        C  0.24851649  0.06166983  0.75448653     0.36570
N407        N  0.25322238  0.88372953  0.71937350    -0.43680
N408        N  0.24779863  0.09183390  0.76124107    -0.43680
C409        C  0.21911138  0.05743763  0.61750739    -0.00090
C410        C  0.18935098  0.05458773  0.66419363    -0.11970
C411        C  0.16215032  0.08035884  0.67098748     0.02140
C412        C  0.16231366  0.10935264  0.62831670    -0.00180
C413        C  0.18900254  0.11087822  0.57848591    -0.11910
C414        C  0.21544373  0.08492847  0.57030610     0.02030
H415        H  0.18639685  0.03180955  0.69577601     0.15010
H416        H  0.18802791  0.13189135  0.54265156     0.15010
C417        C  0.23070513  0.08447729  0.50565399     0.36660
C418        C  0.13395525  0.07576801  0.72110667     0.36570
N419        N  0.23886535  0.08615785  0.95144308    -0.43680
N420        N  0.11140477  0.07205199  0.76138849    -0.43680
C421        C  0.29006531  0.05089059  0.61197565    -0.00090
C422        C  0.31299286  0.05380404  0.66527764    -0.11970
C423        C  0.33837172  0.08157460  0.67042351     0.02140
C424        C  0.34534771  0.10481987  0.61798721    -0.00180
C425        C  0.32981160  0.09664150  0.55977992    -0.11910
C426        C  0.30476958  0.06861161  0.55529229     0.02030
H427        H  0.31148214  0.03506152  0.70453637     0.15010
H428        H  0.33859161  0.11117616  0.51649550     0.15130
C429        C  0.30350189  0.05406040  0.49191378     0.36660
C430        C  0.35625254  0.08553442  0.73048037     0.36570
N431        N  0.30421271  0.04309458  0.94035891    -0.43680
N432        N  0.37026644  0.08871540  0.77889279    -0.43680
C433        C  0.02866509  0.55942259  0.61207002    -0.00090
C434        C  0.06561977  0.54843777  0.61380803    -0.11970
C435        C  0.09488591  0.57293910  0.61358725     0.02140
C436        C  0.08763066  0.60906134  0.60782072    -0.00180
C437        C  0.05224593  0.61949309  0.59443247    -0.11910
C438        C  0.02330844  0.59535315  0.59328759     0.02030
H439        H  0.07144193  0.52081164  0.62081436     0.15010
H440        H  0.04716249  0.64709265  0.58423249     0.15010
C441        C  0.48998094  0.60903123  0.56805919     0.36660
C442        C  0.13142471  0.56059309  0.62352529     0.36570
N443        N  0.46405184  0.62096978  0.54669343    -0.43680
N444        N  0.16073751  0.55067016  0.63152265    -0.43680
C445        C  0.45977486  0.55069089  0.63983343    -0.00090
C446        C  0.42847528  0.54490299  0.60305187    -0.11970
C447        C  0.39886512  0.56814446  0.60524972     0.02140
C448        C  0.39835129  0.59586248  0.64931438    -0.00180
C449        C  0.42539387  0.59714864  0.69474484    -0.11910
C450        C  0.45611653  0.57587816  0.68997585     0.02030
H451        H  0.42751358  0.52353446  0.56962229     0.15010
H452        H  0.42469238  0.61762238  0.73046908     0.15010
C453        C  0.48499672  0.58487778  0.73237950     0.36660
C454        C  0.37033533  0.56376429  0.56002039     0.36570
N455        N  0.50728748  0.59367961  0.76689074    -0.43680
N456        N  0.34761927  0.56024868  0.52344414    -0.43680
C457        C  0.04089434  0.43039581  0.86570724    -0.00090
C458        C  0.03985993  0.40469341  0.81718083    -0.11970
C459        C  0.06647808  0.37883769  0.81057738     0.02140
C460        C  0.09624366  0.37878168  0.85139139    -0.00180
C461        C  0.10079200  0.40706222  0.89249205    -0.11910
C462        C  0.07441353  0.43337637  0.89882410     0.02030
H463        H  0.01601020  0.40247398  0.78821960     0.15010
H464        H  0.12484948  0.40808837  0.92136808     0.15010
C465        C  0.08409318  0.46203892  0.93967141     0.36660
C466        C  0.06016285  0.35073068  0.76630028     0.36570
N467        N  0.09311468  0.48405311  0.97365638    -0.43680
N468        N  0.05486648  0.32816584  0.73106901    -0.43680
C469        C  0.47133323  0.42472399  0.89023653    -0.00090
C470        C  0.43524696  0.43652066  0.88003011    -0.11970
C471        C  0.40535808  0.41288138  0.87844310     0.02140
C472        C  0.40995252  0.37747421  0.89603180    -0.00180
C473        C  0.44377338  0.36676664  0.91736941    -0.11910
C474        C  0.47418781  0.38947230  0.91527485     0.02030
H475        H  0.43086944  0.46382261  0.86734089     0.15010
H476        H  0.44681127  0.33973987  0.93392290     0.15010
C477        C  0.50664092  0.37493241  0.94222347     0.36660
C478        C  0.37051201  0.42538889  0.85799066     0.36570
N479        N  0.03188841  0.36238943  0.96488178    -0.43680
N480        N  0.34261854  0.43537043  0.84119611    -0.43680
C481        C  0.00285617  0.47366379  0.94062687    -0.00090
C482        C  0.01248027  0.45732669  0.99879540    -0.11970
C483        C  0.01304646  0.47493499  0.55722507     0.02140
C484        C  0.99823724  0.50926578  0.56278545    -0.00180
C485        C  0.48754056  0.52533193  0.50483187    -0.11910
C486        C  0.48765383  0.50778757  0.94608470     0.02030
H487        H  0.02299931  0.43098441  0.99802097     0.15010
H488        H  0.47720132  0.55179813  0.50558232     0.15010
C489        C  0.46845857  0.52485248  0.89528520     0.36660
C490        C  0.03276499  0.45753825  0.60713325     0.36570
N491        N  0.45244016  0.53875870  0.85559353    -0.43680
N492        N  0.04896335  0.44317626  0.64608829    -0.43680
C493        C  0.00100751  0.50896428  0.68889549    -0.00090
C494        C  0.02675004  0.51766033  0.73512776    -0.11970
C495        C  0.02707320  0.50115315  0.79585007     0.02140
C496        C  0.00220923  0.47307003  0.81315718    -0.00180
C497        C  0.47870213  0.46233388  0.76436689    -0.11910
C498        C  0.47620380  0.48084503  0.70594419     0.02030
H499        H  0.04542631  0.53962125  0.72707353     0.15010
H500        H  0.46233444  0.43854456  0.76991583     0.15010
C501        C  0.44863744  0.46879053  0.66324713     0.36660
C502        C  0.05189573  0.51638999  0.84004836     0.36570
N503        N  0.42660104  0.45851022  0.62956786    -0.43680
N504        N  0.07149656  0.53108607  0.87300891    -0.43680
C505        C  0.00457458  0.45124682  0.37807660    -0.02420
C506        C  0.49703928  0.53164917  0.12568176    -0.02420
In507      In  0.90643979  0.19748115  0.12485977     1.36870
C508        C  0.97969024  0.19318795  0.12857042     0.77640
O509        O  0.91361066  0.22003019  0.02500513    -0.60800
O510        O  0.86346880  0.22846675  0.07799321    -0.51710
C511        C  0.86915072  0.13678931  0.12074240     0.70310
O512        O  0.88296557  0.14769191  0.17140759    -0.46570
C513        C  0.88175040  0.23425957  0.22332166     0.75010
O514        O  0.96034961  0.16878795  0.10694709    -0.58430
O515        O  0.89412563  0.24857105  0.17195021    -0.48520
O516        O  0.96171646  0.21896101  0.14871154    -0.54860
C517        C  0.88237607  0.23393555  0.02699259     0.85190
O518        O  0.87609633  0.15625151  0.07210381    -0.56750
O519        O  0.88324741  0.20108251  0.22546456    -0.60050
In520      In  0.84328507  0.29061881  0.37752408     1.36870
C521        C  0.77005317  0.29270178  0.37697062     0.77640
O522        O  0.86607692  0.28777945  0.27572377    -0.60800
O523        O  0.85408012  0.24017244  0.32723448    -0.51710
C524        C  0.88149528  0.34987581  0.39097096     0.70310
O525        O  0.86663513  0.34268611  0.33906027    -0.46570
C526        C  0.86875116  0.25478982  0.47436754     0.75010
O527        O  0.78963667  0.32017762  0.37110628    -0.58430
O528        O  0.88645346  0.25843558  0.42145776    -0.48520
O529        O  0.78773076  0.26490918  0.38318382    -0.54860
C530        C  0.86683448  0.25463479  0.27650521     0.85190
O531        O  0.87383002  0.32870048  0.43675712    -0.56750
O532        O  0.83847414  0.27055775  0.47860090    -0.60050
In533      In  0.59334358  0.19546269  0.13061653     1.36870
C534        C  0.51988272  0.19274354  0.12961333     0.77640
O535        O  0.59243476  0.20964644  0.23400543    -0.60800
O536        O  0.63598517  0.22960798  0.17180514    -0.51710
C537        C  0.63489516  0.13804492  0.13051399     0.70310
O538        O  0.61480970  0.14571478  0.17893671    -0.46570
C539        C  0.61331563  0.23456715  0.02947901     0.75010
O540        O  0.53923744  0.16692495  0.11329072    -0.58430
O541        O  0.60851322  0.24753300  0.08422815    -0.48520
O542        O  0.53790252  0.21907034  0.14666838    -0.54860
C543        C  0.62069114  0.22910549  0.22691806     0.85190
O544        O  0.63121840  0.15818630  0.08285795    -0.56750
O545        O  0.60493001  0.20239246  0.02553689    -0.60050
In546      In  0.65684246  0.28881435  0.37260161     1.36870
C547        C  0.72997400  0.29223605  0.37629458     0.77640
O548        O  0.63578297  0.28724158  0.47586226    -0.60800
O549        O  0.63808385  0.23974399  0.42350320    -0.51710
C550        C  0.62030286  0.34805127  0.35731848     0.70310
O551        O  0.63469730  0.33974463  0.40934516    -0.46570
C552        C  0.63399012  0.25058710  0.27807786     0.75010
O553        O  0.71119764  0.31875123  0.36361569    -0.58430
O554        O  0.61582085  0.25362853  0.33018450    -0.48520
O555        O  0.71152089  0.26456720  0.38767672    -0.54860
C556        C  0.62917144  0.25456638  0.47502032     0.85190
O557        O  0.62648851  0.32699010  0.31231077    -0.56750
O558        O  0.66372479  0.26807933  0.27308995    -0.60050
C559        C  0.75048340  0.94403904  0.37092966    -0.02420
C560        C  0.75162236  0.02996598  0.11717796    -0.02420
In561      In  0.84271722  0.68919193  0.13237458     1.36870
C562        C  0.76952222  0.68835186  0.12946391     0.77640
O563        O  0.83546731  0.71280925  0.22998677    -0.60800
O564        O  0.88549042  0.72239468  0.17623426    -0.51710
C565        C  0.87461625  0.62700305  0.14424741     0.70310
O566        O  0.85778986  0.63541464  0.09471873    -0.46570
C567        C  0.87309364  0.72369302  0.03231260     0.75010
O568        O  0.78661475  0.66825144  0.16580355    -0.58430
O569        O  0.86001743  0.73881109  0.08121741    -0.48520
O570        O  0.78969198  0.70790825  0.09347793    -0.54860
C571        C  0.86665639  0.72760641  0.22688043     0.85190
O572        O  0.87279569  0.64944415  0.18791782    -0.56750
O573        O  0.86948622  0.69055154  0.03303120    -0.60050
In574      In  0.90841361  0.78217788  0.37531543     1.36870
C575        C  0.98116047  0.78629322  0.37661730     0.77640
O576        O  0.89423344  0.77670643  0.48007304    -0.60800
O577        O  0.89868535  0.72998054  0.42557387    -0.51710
C578        C  0.86839285  0.84002129  0.36753180     0.70310
O579        O  0.89731100  0.83702571  0.33289521    -0.46570
C580        C  0.88061488  0.74846005  0.27854275     0.75010
O581        O  0.96092764  0.80740903  0.40718297    -0.58430
O582        O  0.86582653  0.74761021  0.33399003    -0.48520
O583        O  0.96428128  0.76340345  0.34607693    -0.54860
C584        C  0.88975458  0.74377739  0.47832966     0.85190
O585        O  0.86248591  0.81522184  0.40726423    -0.56750
O586        O  0.90892661  0.76775163  0.27158855    -0.60050
In587      In  0.65690252  0.69461354  0.12879310     1.36870
C588        C  0.72944376  0.68978185  0.12958026     0.77640
O589        O  0.65957699  0.71008929  0.02462692    -0.60800
O590        O  0.61682296  0.73029795  0.08533776    -0.51710
C591        C  0.61464961  0.63753115  0.11772548     0.70310
O592        O  0.64780288  0.63762151  0.09811968    -0.46570
C593        C  0.63990150  0.73187487  0.23082756     0.75010
O594        O  0.70851903  0.67064962  0.16559869    -0.58430
O595        O  0.65113806  0.74607561  0.17860528    -0.48520
O596        O  0.71329309  0.71100987  0.09382610    -0.54860
C597        C  0.63184305  0.72941497  0.03020127     0.85190
O598        O  0.60479466  0.66525684  0.14479133    -0.56750
O599        O  0.64143511  0.69872914  0.23302499    -0.60050
In600      In  0.59418186  0.78692912  0.38044897     1.36870
C601        C  0.52118977  0.78751905  0.37680015     0.77640
O602        O  0.62210395  0.78523405  0.28241475    -0.60800
O603        O  0.60942709  0.73701761  0.33272877    -0.51710
C604        C  0.62499952  0.85023798  0.38895849     0.70310
O605        O  0.61030800  0.84024335  0.33845757    -0.46570
C606        C  0.61831447  0.74992256  0.47728258     0.75010
O607        O  0.53879416  0.80863106  0.41002548    -0.58430
O608        O  0.63778327  0.75667072  0.42740834    -0.48520
O609        O  0.54077054  0.76689171  0.34427448    -0.54860
C610        C  0.62389515  0.75202096  0.28353431     0.85190
O611        O  0.62205556  0.82841340  0.43501126    -0.56750
O612        O  0.58654274  0.76259066  0.47839185    -0.60050
C613        C  0.78105341  0.91549302  0.36228262    -0.00090
C614        C  0.81772926  0.92696270  0.34738410    -0.11970
C615        C  0.84730458  0.90327030  0.34645583     0.02140
C616        C  0.84042163  0.86731086  0.35970930    -0.00180
C617        C  0.80434013  0.85531101  0.36611789    -0.11910
C618        C  0.77498029  0.87797495  0.36364189     0.02030
H619        H  0.82354542  0.95488749  0.34095141     0.15010
H620        H  0.79891074  0.82712614  0.37027102     0.15010
C621        C  0.74090015  0.85980442  0.35217511     0.36660
C622        C  0.88430156  0.91679778  0.33814285     0.36570
N623        N  0.71511662  0.84339978  0.34065545    -0.43680
N624        N  0.91403985  0.92761099  0.33197954    -0.43680
C625        C  0.71185344  0.92590206  0.38293456    -0.00090
C626        C  0.68382581  0.92905443  0.33802963    -0.11970
C627        C  0.65286497  0.90681987  0.34127334     0.02140
C628        C  0.64782164  0.88259363  0.39274230    -0.00180
C629        C  0.67072880  0.88516992  0.44468708    -0.11910
C630        C  0.70278461  0.90565441  0.44019877     0.02030
H631        H  0.68628155  0.94735602  0.29792985     0.15010
H632        H  0.66615510  0.86775695  0.48610863     0.15010
C633        C  0.72757000  0.90059216  0.49175970     0.36660
C634        C  0.62770535  0.90845177  0.28969331     0.36570
N635        N  0.74641618  0.89525579  0.53405751    -0.43680
N636        N  0.60762311  0.90984324  0.24822507    -0.43680
C637        C  0.75499374  0.96751985  0.43393143    -0.00090
C638        C  0.72454014  0.98845210  0.45237843    -0.11970
C639        C  0.71978548  0.00358431  0.01351328     0.02140
C640        C  0.74922521  0.00518390  0.05648662    -0.00180
C641        C  0.77942594  0.98406659  0.03969787    -0.11910
C642        C  0.78227741  0.96473758  0.48215850     0.02030
H643        H  0.70187768  0.99012187  0.42045225     0.15010
H644        H  0.80152936  0.98264597  0.07290987     0.15010
C645        C  0.81245244  0.94075961  0.48112619     0.36660
C646        C  0.68266792  0.01298861  0.03178651     0.36570
N647        N  0.83692954  0.92196283  0.48569603    -0.43680
N648        N  0.65254046  0.01979039  0.04519973    -0.43680
C649        C  0.75149244  0.96639601  0.30490698    -0.00090
C650        C  0.75128767  0.00354861  0.30400698    -0.11970
C651        C  0.74934770  0.02387583  0.24663261     0.02140
C652        C  0.74961462  0.00793111  0.18412248    -0.00180
C653        C  0.74902710  0.97089146  0.18542842    -0.11910
C654        C  0.75080528  0.95058725  0.24260098     0.02030
H655        H  0.75248953  0.01762517  0.34842523     0.15010
H656        H  0.74731898  0.95672880  0.14116892     0.15010
C657        C  0.75193324  0.91316220  0.23259239     0.36660
C658        C  0.74850057  0.06167674  0.25449989     0.36570
N659        N  0.75344913  0.88376067  0.21924067    -0.43680
N660        N  0.74777281  0.09183975  0.26126463    -0.43680
C661        C  0.71910335  0.05746141  0.11752063    -0.00090
C662        C  0.68934126  0.05460851  0.16420263    -0.11970
C663        C  0.66213964  0.08037892  0.17099603     0.02140
C664        C  0.66230643  0.10937592  0.12833208    -0.00180
C665        C  0.68900116  0.11090761  0.07851163    -0.11910
C666        C  0.71544217  0.08495857  0.07032983     0.02030
H667        H  0.68638641  0.03182782  0.19577909     0.15010
H668        H  0.68803123  0.13192526  0.04268513     0.15010
C669        C  0.73071375  0.08451829  0.00568380     0.36660
C670        C  0.63393923  0.07578355  0.22110470     0.36570
N671        N  0.73884765  0.08610449  0.45140886    -0.43680
N672        N  0.61138414  0.07206398  0.26137765    -0.43680
C673        C  0.79005489  0.05089915  0.11196418    -0.00090
C674        C  0.81297987  0.05381780  0.16526844    -0.11970
C675        C  0.83836089  0.08158616  0.17040667     0.02140
C676        C  0.84534404  0.10482236  0.11795992    -0.00180
C677        C  0.82981369  0.09663529  0.05975153    -0.11910
C678        C  0.80476676  0.06860824  0.05527353     0.02030
H679        H  0.81146860  0.03507995  0.20453349     0.15010
H680        H  0.83859935  0.11116241  0.01646198     0.15130
C681        C  0.80349134  0.05405212  0.99189941     0.36660
C682        C  0.85623465  0.08555389  0.23046872     0.36570
N683        N  0.80423188  0.04310721  0.44036994    -0.43680
N684        N  0.87024221  0.08874121  0.27888559    -0.43680
C685        C  0.52871158  0.55943813  0.11211479    -0.00090
C686        C  0.56566605  0.54844973  0.11383897    -0.11970
C687        C  0.59493523  0.57294790  0.11362032     0.02140
C688        C  0.58768161  0.60907131  0.10790510    -0.00180
C689        C  0.55229517  0.61951603  0.09457211    -0.11910
C690        C  0.52335661  0.59537827  0.09338884     0.02030
H691        H  0.57148641  0.52082103  0.12081580     0.15010
H692        H  0.54721604  0.64712229  0.08442543     0.15010
C693        C  0.99003573  0.60906677  0.06815379     0.36660
C694        C  0.63147806  0.56059941  0.12351113     0.36570
N695        N  0.96411366  0.62101477  0.04677974    -0.43680
N696        N  0.66079478  0.55067590  0.13146968    -0.43680
C697        C  0.95981345  0.55068958  0.13980511    -0.00090
C698        C  0.92853290  0.54490797  0.10297175    -0.11970
C699        C  0.89892535  0.56815137  0.10513298     0.02140
C700        C  0.89838907  0.59585768  0.14922017    -0.00180
C701        C  0.92540228  0.59712922  0.19470533    -0.11910
C702        C  0.95612748  0.57586162  0.18996760     0.02030
H703        H  0.92758587  0.52354516  0.06952855     0.15010
H704        H  0.92468003  0.61759274  0.23044873     0.15010
C705        C  0.98498407  0.58485196  0.23242526     0.36660
C706        C  0.87042460  0.56378733  0.05984296     0.36570
N707        N  0.00725500  0.59364626  0.26698093    -0.43680
N708        N  0.84773297  0.56028521  0.02321656    -0.43680
C709        C  0.54087983  0.43038991  0.36571096    -0.00090
C710        C  0.53985009  0.40468660  0.31718537    -0.11970
C711        C  0.56646973  0.37883200  0.31058861     0.02140
C712        C  0.59623297  0.37877856  0.35140742    -0.00180
C713        C  0.60077702  0.40705978  0.39250818    -0.11910
C714        C  0.57439674  0.43337297  0.39883340     0.02030
H715        H  0.51600253  0.40246526  0.28821934     0.15010
H716        H  0.62483268  0.40808750  0.42138851     0.15010
C717        C  0.58407194  0.46203689  0.43968054     0.36660
C718        C  0.56015798  0.35072282  0.26631417     0.36570
N719        N  0.59309073  0.48405097  0.47366791    -0.43680
N720        N  0.55486431  0.32815611  0.23108548    -0.43680
C721        C  0.97131787  0.42471255  0.39020870    -0.00090
C722        C  0.93523248  0.43650150  0.37996949    -0.11970
C723        C  0.90534706  0.41285835  0.37838469     0.02140
C724        C  0.90994229  0.37745585  0.39600421    -0.00180
C725        C  0.94376083  0.36675653  0.41736445    -0.11910
C726        C  0.97417255  0.38946529  0.41526934     0.02030
H727        H  0.93085241  0.46379997  0.36726028     0.15010
H728        H  0.94679951  0.33973323  0.43393688     0.15010
C729        C  0.00662417  0.37493144  0.44223350     0.36660
C730        C  0.87050289  0.42535773  0.35790747     0.36570
N731        N  0.53187054  0.36239263  0.46490280    -0.43680
N732        N  0.84261099  0.43533267  0.34109343    -0.43680
C733        C  0.50282488  0.47365174  0.44062646    -0.00090
C734        C  0.51245506  0.45731877  0.49879476    -0.11970
C735        C  0.51308746  0.47494422  0.05722222     0.02140
C736        C  0.49830213  0.50928417  0.06277802    -0.00180
C737        C  0.98762759  0.52536181  0.00482073    -0.11910
C738        C  0.98759023  0.50776165  0.44609009     0.02030
H739        H  0.52299059  0.43098443  0.49801942     0.15010
H740        H  0.97731208  0.55183816  0.00557138     0.15010
C741        C  0.96839530  0.52481832  0.39528104     0.36660
C742        C  0.53279982  0.45753994  0.10712976     0.36570
N743        N  0.95237733  0.53871742  0.35558073    -0.43680
N744        N  0.54899282  0.44317241  0.14608536    -0.43680
C745        C  0.50104041  0.50896618  0.18889331    -0.00090
C746        C  0.52677048  0.51765957  0.23514788    -0.11970
C747        C  0.52706949  0.50115621  0.29587673     0.02140
C748        C  0.50220534  0.47306850  0.31315582    -0.00180
C749        C  0.97871451  0.46233272  0.26434182    -0.11910
C750        C  0.97623123  0.48084734  0.20591949     0.02030
H751        H  0.54544971  0.53961993  0.22710792     0.15010
H752        H  0.96234658  0.43854279  0.26987378     0.15010
C753        C  0.94867296  0.46879840  0.16320167     0.36660
C754        C  0.55186246  0.51640473  0.34011198     0.36570
N755        N  0.92664249  0.45852304  0.12950601    -0.43680
N756        N  0.57143692  0.53111089  0.37310524    -0.43680
C757        C  0.00459127  0.45125448  0.87808220    -0.02420
C758        C  0.49699233  0.53164005  0.62567923    -0.02420
In759      In  0.90644754  0.19747757  0.62488289     1.36870
C760        C  0.97969931  0.19317842  0.62859079     0.77640
O761        O  0.91361221  0.22002000  0.52502096    -0.60800
O762        O  0.86347166  0.22845598  0.57801207    -0.51710
C763        C  0.86915567  0.13678624  0.62077355     0.70310
O764        O  0.88296397  0.14769273  0.67144213    -0.46570
C765        C  0.88176167  0.23426800  0.72333271     0.75010
O766        O  0.96035466  0.16877506  0.60698917    -0.58430
O767        O  0.89414202  0.24857380  0.67195955    -0.48520
O768        O  0.96172894  0.21895818  0.64871196    -0.54860
C769        C  0.88237590  0.23392199  0.52700743     0.85190
O770        O  0.87610938  0.15624391  0.57213179    -0.56750
O771        O  0.88325348  0.20109069  0.72548462    -0.60050
In772      In  0.84329289  0.29064115  0.87751795     1.36870
C773        C  0.77006025  0.29271913  0.87695960     0.77640
O774        O  0.86609450  0.28779403  0.77572248    -0.60800
O775        O  0.85408134  0.24019142  0.82723496    -0.51710
C776        C  0.88150233  0.34989789  0.89098763     0.70310
O777        O  0.86664940  0.34270968  0.83906970    -0.46570
C778        C  0.86875604  0.25480937  0.97435729     0.75010
O779        O  0.78964286  0.32019337  0.87103849    -0.58430
O780        O  0.88645914  0.25845471  0.92144788    -0.48520
O781        O  0.78773903  0.26493166  0.88323078    -0.54860
C782        C  0.86684473  0.25464912  0.77650817     0.85190
O783        O  0.87382901  0.32872232  0.93676978    -0.56750
O784        O  0.83848180  0.27058204  0.97859396    -0.60050
In785      In  0.59335492  0.19544434  0.63062303     1.36870
C786        C  0.51989240  0.19273033  0.62963081     0.77640
O787        O  0.59244260  0.20963681  0.73400822    -0.60800
O788        O  0.63600490  0.22957938  0.67181381    -0.51710
C789        C  0.63490450  0.13802399  0.63050524     0.70310
O790        O  0.61482433  0.14569544  0.67893379    -0.46570
C791        C  0.61331986  0.23455429  0.52948875     0.75010
O792        O  0.53924412  0.16690682  0.61332316    -0.58430
O793        O  0.60853168  0.24751476  0.58424483    -0.48520
O794        O  0.53791591  0.21905891  0.64666707    -0.54860
C795        C  0.62070493  0.22908801  0.72692193     0.85190
O796        O  0.63122399  0.15816555  0.58285043    -0.56750
O797        O  0.60492551  0.20238191  0.52553953    -0.60050
In798      In  0.65684973  0.28881589  0.87258793     1.36870
C799        C  0.72998092  0.29224865  0.87628271     0.77640
O800        O  0.63577411  0.28725297  0.97584021    -0.60800
O801        O  0.63810129  0.23974762  0.92350634    -0.51710
C802        C  0.62031152  0.34805263  0.85730048     0.70310
O803        O  0.63471717  0.33975264  0.90932047    -0.46570
C804        C  0.63400259  0.25057524  0.77807565     0.75010
O805        O  0.71120292  0.31875384  0.86354459    -0.58430
O806        O  0.61582766  0.25362905  0.83017309    -0.48520
O807        O  0.71152948  0.26458457  0.88772326    -0.54860
C808        C  0.62917322  0.25457561  0.97501076     0.85190
O809        O  0.62648457  0.32698382  0.81229999    -0.56750
O810        O  0.66374083  0.26806170  0.77308991    -0.60050
C811        C  0.75041194  0.94403907  0.87095392    -0.02420
C812        C  0.75163811  0.02994855  0.61717976    -0.02420
In813      In  0.84269149  0.68920507  0.63243475     1.36870
C814        C  0.76950032  0.68832022  0.62946275     0.77640
O815        O  0.83536924  0.71294692  0.72993813    -0.60800
O816        O  0.88546687  0.72238407  0.67632961    -0.51710
C817        C  0.87457227  0.62700652  0.64435605     0.70310
O818        O  0.85770518  0.63539468  0.59486024    -0.46570
C819        C  0.87311212  0.72370415  0.53240509     0.75010
O820        O  0.78658893  0.66836177  0.66606380    -0.58430
O821        O  0.85990249  0.73883293  0.58119717    -0.48520
O822        O  0.78967387  0.70774750  0.59324104    -0.54860
C823        C  0.86658643  0.72768740  0.72688764     0.85190
O824        O  0.87278936  0.64947135  0.68798981    -0.56750
O825        O  0.86960638  0.69055451  0.53321077    -0.60050
In826      In  0.90836961  0.78225109  0.87529191     1.36870
C827        C  0.98112040  0.78633915  0.87658474     0.77640
O828        O  0.89430211  0.77669051  0.98007601    -0.60800
O829        O  0.89849743  0.73002037  0.92537579    -0.51710
C830        C  0.86840976  0.84012936  0.86757805     0.70310
O831        O  0.89716414  0.83699354  0.83256614    -0.46570
C832        C  0.88053376  0.74856843  0.77852398     0.75010
O833        O  0.96090091  0.80754156  0.90696394    -0.58430
O834        O  0.86563728  0.74787489  0.83389353    -0.48520
O835        O  0.96422689  0.76338165  0.84623188    -0.54860
C836        C  0.88970562  0.74377866  0.97822719     0.85190
O837        O  0.86265336  0.81546649  0.90765237    -0.56750
O838        O  0.90895520  0.76771346  0.77163268    -0.60050
In839      In  0.65687928  0.69459050  0.62879270     1.36870
C840        C  0.72942086  0.68974580  0.62956303     0.77640
O841        O  0.65951876  0.70999895  0.52459395    -0.60800
O842        O  0.61692970  0.73043082  0.58539862    -0.51710
C843        C  0.61459079  0.63753278  0.61764058     0.70310
O844        O  0.64780981  0.63753393  0.59843524    -0.46570
C845        C  0.63986010  0.73182253  0.73085478     0.75010
O846        O  0.70849764  0.67073783  0.66580886    -0.58430
O847        O  0.65119987  0.74603136  0.67869971    -0.48520
O848        O  0.71326825  0.71085259  0.59357686    -0.54860
C849        C  0.63187359  0.72943845  0.53021367     0.85190
O850        O  0.60467874  0.66534347  0.64434499    -0.56750
O851        O  0.64130154  0.69867072  0.73298945    -0.60050
In852      In  0.59413718  0.78690372  0.88044465     1.36870
C853        C  0.52114922  0.78754216  0.87677156     0.77640
O854        O  0.62210645  0.78519047  0.78245231    -0.60800
O855        O  0.60932418  0.73697905  0.83270428    -0.51710
C856        C  0.62493903  0.85021778  0.88893863     0.70310
O857        O  0.61028980  0.84019802  0.83841348    -0.46570
C858        C  0.61827693  0.74990179  0.97727802     0.75010
O859        O  0.53876752  0.80868073  0.90992191    -0.58430
O860        O  0.63776905  0.75671798  0.92745910    -0.48520
O861        O  0.54071482  0.76686375  0.84433101    -0.54860
C862        C  0.62384676  0.75197466  0.78354872     0.85190
O863        O  0.62195973  0.82841484  0.93502459    -0.56750
O864        O  0.58647803  0.76250762  0.97834168    -0.60050
C865        C  0.78099647  0.91550904  0.86231572    -0.00090
C866        C  0.81766013  0.92700556  0.84737346    -0.11970
C867        C  0.84725555  0.90333926  0.84643511     0.02140
C868        C  0.84040915  0.86738370  0.85976264    -0.00180
C869        C  0.80434288  0.85535168  0.86625765    -0.11910
C870        C  0.77495773  0.87798698  0.86375988     0.02030
H871        H  0.82345152  0.95493245  0.84090228     0.15010
H872        H  0.79894903  0.82716338  0.87049189     0.15010
C873        C  0.74088721  0.85977932  0.85238817     0.36660
C874        C  0.88423950  0.91689066  0.83804481     0.36570
N875        N  0.71511141  0.84334165  0.84095264    -0.43680
N876        N  0.91396774  0.92772316  0.83181774    -0.43680
C877        C  0.71178010  0.92589924  0.88294760    -0.00090
C878        C  0.68376456  0.92903712  0.83801534    -0.11970
C879        C  0.65281220  0.90679169  0.84123465     0.02140
C880        C  0.64775428  0.88257857  0.89272020    -0.00180
C881        C  0.67063803  0.88517756  0.94469332    -0.11910
C882        C  0.70269170  0.90566785  0.94022317     0.02030
H883        H  0.68622430  0.94733483  0.79791072     0.15010
H884        H  0.66605055  0.86777640  0.98612769     0.15010
C885        C  0.72745215  0.90063025  0.99182787     0.36660
C886        C  0.62767682  0.90839996  0.78961494     0.36570
N887        N  0.74627421  0.89531358  0.03416723    -0.43680
N888        N  0.60761535  0.90977127  0.74811330    -0.43680
C889        C  0.75492814  0.96752110  0.93394734    -0.00090
C890        C  0.72448562  0.98846653  0.95238920    -0.11970
C891        C  0.71982440  0.00355471  0.51351160     0.02140
C892        C  0.74925795  0.00516269  0.55649191    -0.00180
C893        C  0.77946917  0.98405790  0.53970638    -0.11910
C894        C  0.78221441  0.96473165  0.98216788     0.02030
H895        H  0.70182092  0.99013714  0.92046760     0.15010
H896        H  0.80156899  0.98264284  0.57292637     0.15010
C897        C  0.81235987  0.94071871  0.98116184     0.36660
C898        C  0.68269989  0.01293410  0.53178818     0.36570
N899        N  0.83680912  0.92188979  0.98574586    -0.43680
N900        N  0.65256795  0.01971600  0.54520736    -0.43680
C901        C  0.75142829  0.96639204  0.80492821    -0.00090
C902        C  0.75125960  0.00354455  0.80401539    -0.11970
C903        C  0.74935058  0.02386755  0.74663174     0.02140
C904        C  0.74962334  0.00791683  0.68412645    -0.00180
C905        C  0.74901133  0.97087616  0.68544244    -0.11910
C906        C  0.75074045  0.95057583  0.74263015     0.02030
H907        H  0.75246214  0.01762386  0.84843085     0.15010
H908        H  0.74730943  0.95671119  0.64118330     0.15010
C909        C  0.75178606  0.91314327  0.73266639     0.36660
C910        C  0.74851649  0.06166983  0.75448652     0.36570
N911        N  0.75322240  0.88372953  0.71937350    -0.43680
N912        N  0.74779862  0.09183391  0.76124105    -0.43680
C913        C  0.71911139  0.05743763  0.61750738    -0.00090
C914        C  0.68935098  0.05458772  0.66419361    -0.11970
C915        C  0.66215032  0.08035884  0.67098746     0.02140
C916        C  0.66231367  0.10935264  0.62831669    -0.00180
C917        C  0.68900255  0.11087823  0.57848591    -0.11910
C918        C  0.71544374  0.08492847  0.57030610     0.02030
H919        H  0.68639685  0.03180954  0.69577599     0.15010
H920        H  0.68802792  0.13189136  0.54265157     0.15010
C921        C  0.73070515  0.08447730  0.50565399     0.36660
C922        C  0.63395525  0.07576801  0.72110665     0.36570
N923        N  0.73886533  0.08615784  0.95144306    -0.43680
N924        N  0.61140476  0.07205198  0.76138845    -0.43680
C925        C  0.79006531  0.05089059  0.61197564    -0.00090
C926        C  0.81299285  0.05380405  0.66527764    -0.11970
C927        C  0.83837172  0.08157460  0.67042351     0.02140
C928        C  0.84534771  0.10481987  0.61798720    -0.00180
C929        C  0.82981161  0.09664149  0.55977991    -0.11910
C930        C  0.80476959  0.06861161  0.55529228     0.02030
H931        H  0.81148213  0.03506152  0.70453637     0.15010
H932        H  0.83859162  0.11117615  0.51649549     0.15130
C933        C  0.80350189  0.05406040  0.49191377     0.36660
C934        C  0.85625253  0.08553443  0.73048038     0.36570
N935        N  0.80421270  0.04309459  0.94035890    -0.43680
N936        N  0.87026642  0.08871541  0.77889280    -0.43680
C937        C  0.52866509  0.55942260  0.61207001    -0.00090
C938        C  0.56561977  0.54843778  0.61380802    -0.11970
C939        C  0.59488591  0.57293911  0.61358724     0.02140
C940        C  0.58763066  0.60906134  0.60782071    -0.00180
C941        C  0.55224593  0.61949309  0.59443247    -0.11910
C942        C  0.52330844  0.59535316  0.59328760     0.02030
H943        H  0.57144193  0.52081164  0.62081435     0.15010
H944        H  0.54716249  0.64709265  0.58423249     0.15010
C945        C  0.98998094  0.60903122  0.56805918     0.36660
C946        C  0.63142471  0.56059310  0.62352528     0.36570
N947        N  0.96405184  0.62096977  0.54669342    -0.43680
N948        N  0.66073751  0.55067016  0.63152263    -0.43680
C949        C  0.95977486  0.55069089  0.63983344    -0.00090
C950        C  0.92847528  0.54490299  0.60305188    -0.11970
C951        C  0.89886512  0.56814446  0.60524973     0.02140
C952        C  0.89835129  0.59586248  0.64931438    -0.00180
C953        C  0.92539388  0.59714865  0.69474484    -0.11910
C954        C  0.95611653  0.57587816  0.68997585     0.02030
H955        H  0.92751357  0.52353445  0.56962231     0.15010
H956        H  0.92469239  0.61762239  0.73046907     0.15010
C957        C  0.98499672  0.58487778  0.73237950     0.36660
C958        C  0.87033533  0.56376429  0.56002040     0.36570
N959        N  0.00728749  0.59367961  0.76689074    -0.43680
N960        N  0.84761927  0.56024868  0.52344416    -0.43680
C961        C  0.54089433  0.43039580  0.86570723    -0.00090
C962        C  0.53985992  0.40469341  0.81718083    -0.11970
C963        C  0.56647806  0.37883768  0.81057739     0.02140
C964        C  0.59624365  0.37878167  0.85139138    -0.00180
C965        C  0.60079199  0.40706222  0.89249204    -0.11910
C966        C  0.57441353  0.43337637  0.89882408     0.02030
H967        H  0.51601019  0.40247396  0.78821961     0.15010
H968        H  0.62484948  0.40808837  0.92136806     0.15010
C969        C  0.58409319  0.46203892  0.93967138     0.36660
C970        C  0.56016283  0.35073066  0.76630030     0.36570
N971        N  0.59311469  0.48405311  0.97365634    -0.43680
N972        N  0.55486645  0.32816581  0.73106905    -0.43680
C973        C  0.97133323  0.42472399  0.89023654    -0.00090
C974        C  0.93524697  0.43652066  0.88003013    -0.11970
C975        C  0.90535808  0.41288138  0.87844312     0.02140
C976        C  0.90995252  0.37747421  0.89603180    -0.00180
C977        C  0.94377339  0.36676663  0.91736940    -0.11910
C978        C  0.97418782  0.38947229  0.91527484     0.02030
H979        H  0.93086944  0.46382261  0.86734092     0.15010
H980        H  0.94681128  0.33973986  0.93392287     0.15010
C981        C  0.00664092  0.37493240  0.94222346     0.36660
C982        C  0.87051201  0.42538889  0.85799070     0.36570
N983        N  0.53188840  0.36238944  0.96488181    -0.43680
N984        N  0.84261854  0.43537043  0.84119617    -0.43680
C985        C  0.50285617  0.47366379  0.94062686    -0.00090
C986        C  0.51248028  0.45732670  0.99879538    -0.11970
C987        C  0.51304646  0.47493499  0.55722505     0.02140
C988        C  0.49823725  0.50926578  0.56278544    -0.00180
C989        C  0.98754055  0.52533193  0.50483188    -0.11910
C990        C  0.98765384  0.50778757  0.94608472     0.02030
H991        H  0.52299933  0.43098442  0.99802096     0.15010
H992        H  0.97720131  0.55179813  0.50558232     0.15010
C993        C  0.96845858  0.52485249  0.89528521     0.36660
C994        C  0.53276500  0.45753825  0.60713323     0.36570
N995        N  0.95244018  0.53875871  0.85559354    -0.43680
N996        N  0.54896336  0.44317627  0.64608827    -0.43680
C997        C  0.50100751  0.50896428  0.68889548    -0.00090
C998        C  0.52675004  0.51766033  0.73512775    -0.11970
C999        C  0.52707320  0.50115315  0.79585007     0.02140
C1000       C  0.50220923  0.47307003  0.81315717    -0.00180
C1001       C  0.97870213  0.46233388  0.76436690    -0.11910
C1002       C  0.97620380  0.48084503  0.70594421     0.02030
H1003       H  0.54542630  0.53962125  0.72707352     0.15010
H1004       H  0.96233444  0.43854457  0.76991585     0.15010
C1005       C  0.94863743  0.46879053  0.66324715     0.36660
C1006       C  0.55189572  0.51639000  0.84004836     0.36570
N1007       N  0.92660103  0.45851022  0.62956788    -0.43680
N1008       N  0.57149655  0.53108609  0.87300892    -0.43680
loop_ 
_geom_bond_atom_site_label_1 
_geom_bond_atom_site_label_2 
_geom_bond_distance 
_geom_bond_site_symmetry_2 
_ccdc_geom_bond_type 
C1          C217   1.577       .  S
C1          C709   1.568       .  S
C1          C733   1.568       .  S
C1          C748   1.581       .  S
C2          C181   1.569   1_655  S
C2          C232   1.574       .  S
C2          C241   1.576   1_655  S
C2          C697   1.568       .  S
In3           O5   2.242       .  S
In3           O6   2.223       .  S
In3          O14   2.236       .  S
In3           O8   2.254       .  S
In3          O10   2.284       .  S
In3          O11   2.233       .  S
In3          O12   2.245       .  S
In3          O15   2.236       .  S
C4           O10   1.258       .  A
C4           O12   1.255       .  A
C4          C534   1.469       .  S
O5           C13   1.263       .  A
O6           C13   1.256       .  A
C7           O14   1.260       .  A
C7            O8   1.262       .  A
C7          C172   1.487       .  S
C9           O11   1.257       .  A
C9           O15   1.263       .  A
C9           C26   1.454       .  S
C13         C274   1.452   1_554  S
In16         O18   2.252       .  S
In16         O19   2.232       .  S
In16         O27   2.234       .  S
In16         O21   2.265       .  S
In16         O23   2.279       .  S
In16         O24   2.225       .  S
In16         O25   2.237       .  S
In16         O28   2.228       .  S
C17          O23   1.259       .  A
C17          O25   1.253       .  A
C17          C43   1.464       .  S
O18          C26   1.260       .  A
O19          C26   1.253       .  A
C20          O27   1.258       .  A
C20          O21   1.262       .  A
C20         C220   1.473       .  S
C22          O24   1.260       .  A
C22          O28   1.265       .  A
C22         C265   1.452       .  S
In29         O31   2.229       .  S
In29         O32   2.222       .  S
In29         O40   2.213       .  S
In29         O34   2.290       .  S
In29         O36   2.285       .  S
In29         O37   2.240       .  S
In29         O38   2.240       .  S
In29         O41   2.225       .  S
C30          O36   1.260       .  A
C30          O38   1.254       .  A
C30         C508   1.469   1_455  S
O31          C39   1.263       .  A
O32          C39   1.256       .  A
C33          O40   1.257       .  A
C33          O34   1.264       .  A
C33         C160   1.489       .  S
C35          O37   1.257       .  A
C35          O41   1.261       .  A
C35         C304   1.452   1_554  S
C39          C48   1.449       .  S
In42         O44   2.255       .  S
In42         O45   2.216       .  S
In42         O53   2.238       .  S
In42         O47   2.242       .  S
In42         O49   2.274       .  S
In42         O50   2.215       .  S
In42         O51   2.242       .  S
In42         O54   2.237       .  S
C43          O49   1.257       .  A
C43          O51   1.255       .  A
O44          C52   1.262       .  A
O45          C52   1.254       .  A
C46          O53   1.259       .  A
C46          O47   1.262       .  A
C46         C208   1.477       .  S
C48          O50   1.257       .  A
C48          O54   1.265       .  A
C52         C287   1.452       .  S
C55         C109   1.574       .  S
C55         C121   1.570       .  S
C55         C133   1.613       .  S
C55         C145   1.604       .  S
C56         C136   1.594       .  S
C56         C148   1.614       .  S
C56         C157   1.592       .  S
C56         C169   1.603       .  S
In57         O59   2.245       .  S
In57         O60   2.229       .  S
In57         O68   2.218       .  S
In57         O62   2.268       .  S
In57         O64   2.266       .  S
In57         O65   2.222       .  S
In57         O66   2.249       .  S
In57         O69   2.253       .  S
C58          O64   1.257       .  A
C58          O66   1.256       .  A
C58          C84   1.465       .  S
O59          C67   1.262       .  A
O60          C67   1.256       .  A
C61          O68   1.258       .  A
C61          O62   1.262       .  A
C61         C196   1.482       .  S
C63          O65   1.259       .  A
C63          O69   1.264       .  A
C63         C332   1.458   1_554  S
C67          C76   1.452       .  S
In70         O72   2.229       .  S
In70         O73   2.245       .  S
In70         O81   2.197       .  S
In70         O75   2.298       .  S
In70         O77   2.261       .  S
In70         O78   2.231       .  S
In70         O79   2.235       .  S
In70         O82   2.239       .  S
C71          O77   1.261       .  A
C71          O79   1.256       .  A
C71         C601   1.462       .  S
O72          C80   1.261       .  A
O73          C80   1.259       .  A
C74          O81   1.255       .  A
C74          O75   1.262       .  A
C74         C112   1.477       .  S
C76          O78   1.255       .  A
C76          O82   1.261       .  A
C80         C315   1.458       .  S
In83         O85   2.238       .  S
In83         O86   2.219       .  S
In83         O94   2.203       .  S
In83         O88   2.292       .  S
In83         O90   2.261       .  S
In83         O91   2.237       .  S
In83         O92   2.233       .  S
In83         O95   2.231       .  S
C84          O90   1.263       .  A
C84          O92   1.258       .  A
O85          C93   1.262       .  A
O86          C93   1.254       .  A
C87          O94   1.253       .  A
C87          O88   1.262       .  A
C87         C184   1.475       .  S
C89          O91   1.258       .  A
C89          O95   1.262       .  A
C89         C106   1.457       .  S
C93         C354   1.448   1_554  S
In96         O98   2.248       .  S
In96         O99   2.223       .  S
In96        O107   2.219       .  S
In96        O101   2.255       .  S
In96        O103   2.261       .  S
In96        O104   2.226       .  S
In96        O105   2.247       .  S
In96        O108   2.233       .  S
C97         O103   1.256       .  A
C97         O105   1.256       .  A
C97         C575   1.462   1_455  S
O98         C106   1.264       .  A
O99         C106   1.259       .  A
C100        O107   1.258       .  A
C100        O101   1.263       .  A
C100        C124   1.481       .  S
C102        O104   1.256       .  A
C102        O108   1.262       .  A
C102        C345   1.448       .  S
C109        C110   1.423       .  A
C109        C114   1.439       .  A
C110        C111   1.415       .  A
C110        H115   1.084       .  S
C111        C112   1.407       .  A
C111        C118   1.442       .  S
C112        C113   1.389       .  A
C113        C114   1.386       .  A
C113        H116   1.088       .  S
C114        C117   1.445       .  S
C117        N119   1.158       .  T
C118        N120   1.157       .  T
C121        C122   1.420       .  A
C121        C126   1.434       .  A
C122        C123   1.401       .  A
C122        H127   1.079       .  S
C123        C124   1.407       .  A
C123        C130   1.444       .  S
C124        C125   1.399       .  A
C125        C126   1.396       .  A
C125        H128   1.085       .  S
C126        C129   1.445       .  S
C129        N131   1.157       .  T
C130        N132   1.157       .  T
C133        C134   1.420       .  A
C133        C138   1.448       .  A
C134        C387   1.411   1_565  A
C134        H139   1.085       .  S
C135        C136   1.429       .  A
C135        C386   1.411   1_544  A
C135        C142   1.444       .  S
C136        C137   1.409   1_545  A
C137        C390   1.418   1_554  A
C137        H140   1.086       .  S
C138        C389   1.418       .  A
C138        C141   1.439       .  S
C141        N143   1.158       .  T
C142        N144   1.158       .  T
C145        C146   1.412   1_565  A
C145        C150   1.441       .  A
C146        C147   1.418       .  A
C146        H151   1.079       .  S
C147        C148   1.446       .  A
C147        C154   1.449       .  S
C148        C149   1.407   1_545  A
C149        C150   1.413       .  A
C149        H152   1.079       .  S
C150        C153   1.442       .  S
C153        N155   1.157       .  T
C154        N156   1.158       .  T
C157        C158   1.431       .  A
C157        C162   1.435       .  A
C158        C159   1.409       .  A
C158        H163   1.080       .  S
C159        C160   1.404       .  A
C159        C166   1.443       .  S
C160        C161   1.395       .  A
C161        C162   1.397       .  A
C161        H164   1.086       .  S
C162        C165   1.438       .  S
C165        N419   1.158   1_554  T
C166        N168   1.157       .  T
N167        C417   1.158       .  T
C169        C170   1.423       .  A
C169        C174   1.432       .  A
C170        C171   1.403       .  A
C170        H175   1.075       .  S
C171        C172   1.407       .  A
C171        C178   1.445       .  S
C172        C173   1.398       .  A
C173        C174   1.401       .  A
C173        H176   1.085       .  S
C174        C177   1.443   1_554  S
C177        N431   1.158       .  T
C178        N180   1.157       .  T
N179        C429   1.158       .  T
C181        C182   1.420       .  A
C181        C186   1.432       .  A
C182        C183   1.407       .  A
C182        H187   1.083       .  S
C183        C184   1.405       .  A
C183        C190   1.442       .  S
C184        C185   1.394       .  A
C185        C186   1.391       .  A
C185        H188   1.087       .  S
C186        C693   1.445   1_455  S
C189        C690   1.445       .  S
C189        N191   1.158       .  T
C190        N192   1.157       .  T
C193        C506   1.568       .  S
C193        C194   1.419       .  A
C193        C198   1.432       .  A
C194        C195   1.405       .  A
C194        H199   1.080       .  S
C195        C196   1.409       .  A
C195        C202   1.443       .  S
C196        C197   1.397       .  A
C197        C198   1.393       .  A
C197        H200   1.086       .  S
C198        C201   1.445       .  S
C201        N203   1.158       .  T
C202        N204   1.157       .  T
C205        C505   1.568       .  S
C205        C206   1.419       .  A
C205        C210   1.434       .  A
C206        C207   1.396       .  A
C206        H211   1.083       .  S
C207        C208   1.407       .  A
C207        C214   1.445       .  S
C208        C209   1.398       .  A
C209        C210   1.402       .  A
C209        H212   1.086       .  S
C210        C213   1.442       .  S
C213        N215   1.158       .  T
C214        N216   1.157       .  T
C217        C218   1.421       .  A
C217        C222   1.436       .  A
C218        C219   1.406       .  A
C218        H223   1.082       .  S
C219        C220   1.403       .  A
C219        C226   1.443       .  S
C220        C221   1.393       .  A
C221        C222   1.396       .  A
C221        H224   1.087       .  S
C222        C225   1.445       .  S
C225        N731   1.158       .  T
C226        N228   1.157       .  T
N227        C729   1.158       .  T
C229        C505   1.568       .  S
C229        C230   1.413       .  A
C229        C738   1.422   1_455  A
C230        C483   1.400       .  A
C230        H235   1.077       .  S
C231        C232   1.424   1_455  A
C231        C482   1.400   1_554  A
C231        C238   1.445       .  S
C232        C737   1.416       .  A
C233        C736   1.416       .  A
C233        C486   1.404   1_554  A
C233        H236   1.079       .  S
C234        C733   1.422       .  A
C234        C485   1.404       .  A
C234        C237   1.443       .  S
C237        N239   1.157       .  T
C238        N240   1.158       .  T
C241        C242   1.413       .  A
C241        C750   1.422   1_455  A
C242        C243   1.404       .  A
C242        H247   1.077       .  S
C243        C244   1.424       .  A
C243        C250   1.441       .  S
C244        C505   1.581       .  S
C244        C749   1.419   1_455  A
C245        C246   1.403       .  A
C245        C748   1.419       .  A
C245        H248   1.079       .  S
C246        C745   1.422       .  A
C246        C249   1.445       .  S
C249        N251   1.157       .  T
C250        N252   1.157       .  T
C253        C961   1.568       .  S
C253        C469   1.577       .  S
C253        C985   1.568       .  S
C253       C1000   1.581       .  S
C254        C433   1.569   1_655  S
C254        C949   1.568       .  S
C254        C484   1.574       .  S
C254        C493   1.576   1_655  S
In255       O257   2.242       .  S
In255       O258   2.223       .  S
In255       O266   2.236       .  S
In255       O260   2.254       .  S
In255       O262   2.284       .  S
In255       O263   2.233       .  S
In255       O264   2.245       .  S
In255       O267   2.236       .  S
C256        O262   1.258       .  A
C256        O264   1.255       .  A
C256        C786   1.469       .  S
O257        C265   1.263       .  A
O258        C265   1.256       .  A
C259        O266   1.260       .  A
C259        O260   1.262       .  A
C259        C424   1.487       .  S
C261        O263   1.257       .  A
C261        O267   1.263       .  A
C261        C278   1.454       .  S
In268       O270   2.252       .  S
In268       O271   2.232       .  S
In268       O279   2.234       .  S
In268       O273   2.265       .  S
In268       O275   2.279       .  S
In268       O276   2.225       .  S
In268       O277   2.237       .  S
In268       O280   2.228       .  S
C269        O275   1.259       .  A
C269        O277   1.253       .  A
C269        C295   1.464       .  S
O270        C278   1.260       .  A
O271        C278   1.253       .  A
C272        O279   1.258       .  A
C272        O273   1.262       .  A
C272        C472   1.473       .  S
C274        O276   1.260       .  A
C274        O280   1.265       .  A
In281       O283   2.229       .  S
In281       O284   2.222       .  S
In281       O292   2.213       .  S
In281       O286   2.290       .  S
In281       O288   2.285       .  S
In281       O289   2.240       .  S
In281       O290   2.240       .  S
In281       O293   2.225       .  S
C282        O288   1.260       .  A
C282        O290   1.254       .  A
C282        C760   1.469   1_455  S
O283        C291   1.263       .  A
O284        C291   1.256       .  A
C285        O292   1.257       .  A
C285        O286   1.264       .  A
C285        C412   1.489       .  S
C287        O289   1.257       .  A
C287        O293   1.261       .  A
C291        C300   1.449       .  S
In294       O296   2.255       .  S
In294       O297   2.216       .  S
In294       O305   2.238       .  S
In294       O299   2.242       .  S
In294       O301   2.274       .  S
In294       O302   2.215       .  S
In294       O303   2.242       .  S
In294       O306   2.237       .  S
C295        O301   1.257       .  A
C295        O303   1.255       .  A
O296        C304   1.262       .  A
O297        C304   1.254       .  A
C298        O305   1.259       .  A
C298        O299   1.262       .  A
C298        C460   1.477       .  S
C300        O302   1.257       .  A
C300        O306   1.265       .  A
C307        C361   1.574       .  S
C307        C373   1.570       .  S
C307        C385   1.612       .  S
C307        C397   1.604       .  S
C308        C388   1.594       .  S
C308        C400   1.614       .  S
C308        C409   1.592       .  S
C308        C421   1.603       .  S
In309       O311   2.245       .  S
In309       O312   2.229       .  S
In309       O320   2.218       .  S
In309       O314   2.268       .  S
In309       O316   2.266       .  S
In309       O317   2.222       .  S
In309       O318   2.249       .  S
In309       O321   2.253       .  S
C310        O316   1.257       .  A
C310        O318   1.257       .  A
C310        C336   1.465       .  S
O311        C319   1.262       .  A
O312        C319   1.256       .  A
C313        O320   1.258       .  A
C313        O314   1.262       .  A
C313        C448   1.482       .  S
C315        O317   1.259       .  A
C315        O321   1.264       .  A
C319        C328   1.452       .  S
In322       O324   2.229       .  S
In322       O325   2.245       .  S
In322       O333   2.197       .  S
In322       O327   2.298       .  S
In322       O329   2.261       .  S
In322       O330   2.231       .  S
In322       O331   2.235       .  S
In322       O334   2.238       .  S
C323        O329   1.261       .  A
C323        O331   1.256       .  A
C323        C853   1.462       .  S
O324        C332   1.261       .  A
O325        C332   1.259       .  A
C326        O333   1.255       .  A
C326        O327   1.262       .  A
C326        C364   1.477       .  S
C328        O330   1.255       .  A
C328        O334   1.261       .  A
In335       O337   2.238       .  S
In335       O338   2.219       .  S
In335       O346   2.203       .  S
In335       O340   2.292       .  S
In335       O342   2.261       .  S
In335       O343   2.237       .  S
In335       O344   2.233       .  S
In335       O347   2.231       .  S
C336        O342   1.263       .  A
C336        O344   1.258       .  A
O337        C345   1.262       .  A
O338        C345   1.254       .  A
C339        O346   1.253       .  A
C339        O340   1.262       .  A
C339        C436   1.475       .  S
C341        O343   1.258       .  A
C341        O347   1.262       .  A
C341        C358   1.457       .  S
In348       O350   2.248       .  S
In348       O351   2.223       .  S
In348       O359   2.219       .  S
In348       O353   2.254       .  S
In348       O355   2.261       .  S
In348       O356   2.226       .  S
In348       O357   2.247       .  S
In348       O360   2.233       .  S
C349        O355   1.256       .  A
C349        O357   1.256       .  A
C349        C827   1.462   1_455  S
O350        C358   1.264       .  A
O351        C358   1.258       .  A
C352        O359   1.258       .  A
C352        O353   1.263       .  A
C352        C376   1.481       .  S
C354        O356   1.256       .  A
C354        O360   1.262       .  A
C361        C362   1.423       .  A
C361        C366   1.439       .  A
C362        C363   1.415       .  A
C362        H367   1.084       .  S
C363        C364   1.407       .  A
C363        C370   1.442       .  S
C364        C365   1.389       .  A
C365        C366   1.386       .  A
C365        H368   1.088       .  S
C366        C369   1.445       .  S
C369        N371   1.158       .  T
C370        N372   1.157       .  T
C373        C374   1.420       .  A
C373        C378   1.434       .  A
C374        C375   1.401       .  A
C374        H379   1.079       .  S
C375        C376   1.407       .  A
C375        C382   1.444       .  S
C376        C377   1.399       .  A
C377        C378   1.396       .  A
C377        H380   1.085       .  S
C378        C381   1.445       .  S
C381        N383   1.157   1_556  T
C382        N384   1.157       .  T
C385        C386   1.420       .  A
C385        C390   1.448       .  A
C386        H391   1.085       .  S
C387        C388   1.428       .  A
C387        C394   1.444       .  S
C388        C389   1.409   1_545  A
C389        H392   1.086       .  S
C390        C393   1.439       .  S
C393        N395   1.158       .  T
C394        N396   1.158       .  T
C397        C398   1.412   1_565  A
C397        C402   1.441       .  A
C398        C399   1.418       .  A
C398        H403   1.079       .  S
C399        C400   1.446       .  A
C399        C406   1.449       .  S
C400        C401   1.407   1_545  A
C401        C402   1.413       .  A
C401        H404   1.079       .  S
C402        C405   1.442       .  S
C405        N407   1.157       .  T
C406        N408   1.158       .  T
C409        C410   1.431       .  A
C409        C414   1.435       .  A
C410        C411   1.409       .  A
C410        H415   1.080       .  S
C411        C412   1.404       .  A
C411        C418   1.443       .  S
C412        C413   1.395       .  A
C413        C414   1.397       .  A
C413        H416   1.086       .  S
C414        C417   1.438       .  S
C418        N420   1.157       .  T
C421        C422   1.423       .  A
C421        C426   1.432       .  A
C422        C423   1.403       .  A
C422        H427   1.075       .  S
C423        C424   1.407       .  A
C423        C430   1.445       .  S
C424        C425   1.398       .  A
C425        C426   1.401       .  A
C425        H428   1.085       .  S
C426        C429   1.443       .  S
C430        N432   1.157       .  T
C433        C434   1.420       .  A
C433        C438   1.432       .  A
C434        C435   1.407       .  A
C434        H439   1.083       .  S
C435        C436   1.406       .  A
C435        C442   1.442       .  S
C436        C437   1.394       .  A
C437        C438   1.391       .  A
C437        H440   1.087       .  S
C438        C945   1.445   1_455  S
C441        C942   1.445       .  S
C441        N443   1.158       .  T
C442        N444   1.157       .  T
C445        C758   1.568       .  S
C445        C446   1.419       .  A
C445        C450   1.432       .  A
C446        C447   1.405       .  A
C446        H451   1.080       .  S
C447        C448   1.409       .  A
C447        C454   1.443       .  S
C448        C449   1.397       .  A
C449        C450   1.393       .  A
C449        H452   1.086       .  S
C450        C453   1.445       .  S
C453        N455   1.158       .  T
C454        N456   1.157       .  T
C457        C757   1.568       .  S
C457        C458   1.419       .  A
C457        C462   1.434       .  A
C458        C459   1.396       .  A
C458        H463   1.083       .  S
C459        C460   1.407       .  A
C459        C466   1.445       .  S
C460        C461   1.398       .  A
C461        C462   1.402       .  A
C461        H464   1.086       .  S
C462        C465   1.442       .  S
C465        N467   1.158       .  T
C466        N468   1.157       .  T
C469        C470   1.421       .  A
C469        C474   1.436       .  A
C470        C471   1.406       .  A
C470        H475   1.082       .  S
C471        C472   1.403       .  A
C471        C478   1.443       .  S
C472        C473   1.393       .  A
C473        C474   1.396       .  A
C473        H476   1.087       .  S
C474        C477   1.445       .  S
C477        N983   1.158       .  T
C478        N480   1.157       .  T
N479        C981   1.158       .  T
C481        C757   1.568       .  S
C481        C482   1.413       .  A
C481        C990   1.422   1_455  A
C482        H487   1.077       .  S
C483        C484   1.424   1_455  A
C483        C490   1.445       .  S
C484        C989   1.416       .  A
C485        C988   1.416       .  A
C485        H488   1.079       .  S
C486        C985   1.422       .  A
C486        C489   1.443       .  S
C489        N491   1.157       .  T
C490        N492   1.158       .  T
C493        C494   1.413       .  A
C493       C1002   1.422   1_455  A
C494        C495   1.404       .  A
C494        H499   1.077       .  S
C495        C496   1.424       .  A
C495        C502   1.441       .  S
C496        C757   1.581       .  S
C496       C1001   1.419   1_455  A
C497       C1000   1.419       .  A
C497        C498   1.403       .  A
C497        H500   1.079       .  S
C498        C997   1.422       .  A
C498        C501   1.445       .  S
C501        N503   1.157       .  T
C502        N504   1.157       .  T
C505        C721   1.577   1_455  S
C506        C685   1.569       .  S
C506        C736   1.574       .  S
C506        C745   1.576       .  S
In507       O509   2.242       .  S
In507       O510   2.223       .  S
In507       O518   2.236       .  S
In507       O512   2.254       .  S
In507       O514   2.284       .  S
In507       O515   2.233       .  S
In507       O516   2.245       .  S
In507       O519   2.236       .  S
C508        O514   1.258       .  A
C508        O516   1.255       .  A
O509        C517   1.263       .  A
O510        C517   1.256       .  A
C511        O518   1.260       .  A
C511        O512   1.262       .  A
C511        C676   1.487       .  S
C513        O515   1.257       .  A
C513        O519   1.263       .  A
C513        C530   1.454       .  S
C517        C778   1.452   1_554  S
In520       O522   2.252       .  S
In520       O523   2.232       .  S
In520       O531   2.234       .  S
In520       O525   2.265       .  S
In520       O527   2.279       .  S
In520       O528   2.225       .  S
In520       O529   2.237       .  S
In520       O532   2.228       .  S
C521        O527   1.259       .  A
C521        O529   1.253       .  A
C521        C547   1.464       .  S
O522        C530   1.260       .  A
O523        C530   1.253       .  A
C524        O531   1.258       .  A
C524        O525   1.262       .  A
C524        C724   1.473       .  S
C526        O528   1.260       .  A
C526        O532   1.265       .  A
C526        C769   1.452       .  S
In533       O535   2.229       .  S
In533       O536   2.222       .  S
In533       O544   2.213       .  S
In533       O538   2.290       .  S
In533       O540   2.285       .  S
In533       O541   2.240       .  S
In533       O542   2.240       .  S
In533       O545   2.225       .  S
C534        O540   1.260       .  A
C534        O542   1.254       .  A
O535        C543   1.263       .  A
O536        C543   1.256       .  A
C537        O544   1.257       .  A
C537        O538   1.264       .  A
C537        C664   1.489       .  S
C539        O541   1.257       .  A
C539        O545   1.261       .  A
C539        C808   1.452   1_554  S
C543        C552   1.449       .  S
In546       O548   2.255       .  S
In546       O549   2.216       .  S
In546       O557   2.238       .  S
In546       O551   2.242       .  S
In546       O553   2.274       .  S
In546       O554   2.215       .  S
In546       O555   2.242       .  S
In546       O558   2.237       .  S
C547        O553   1.257       .  A
C547        O555   1.255       .  A
O548        C556   1.262       .  A
O549        C556   1.254       .  A
C550        O557   1.259       .  A
C550        O551   1.262       .  A
C550        C712   1.477       .  S
C552        O554   1.257       .  A
C552        O558   1.265       .  A
C556        C791   1.452       .  S
C559        C613   1.574       .  S
C559        C625   1.570       .  S
C559        C637   1.613       .  S
C559        C649   1.604       .  S
C560        C640   1.594       .  S
C560        C652   1.614       .  S
C560        C661   1.592       .  S
C560        C673   1.603       .  S
In561       O563   2.245       .  S
In561       O564   2.229       .  S
In561       O572   2.218       .  S
In561       O566   2.268       .  S
In561       O568   2.266       .  S
In561       O569   2.222       .  S
In561       O570   2.249       .  S
In561       O573   2.253       .  S
C562        O568   1.257       .  A
C562        O570   1.256       .  A
C562        C588   1.465       .  S
O563        C571   1.262       .  A
O564        C571   1.256       .  A
C565        O572   1.258       .  A
C565        O566   1.262       .  A
C565        C700   1.482       .  S
C567        O569   1.259       .  A
C567        O573   1.264       .  A
C567        C836   1.458   1_554  S
C571        C580   1.452       .  S
In574       O576   2.229       .  S
In574       O577   2.245       .  S
In574       O585   2.197       .  S
In574       O579   2.298       .  S
In574       O581   2.261       .  S
In574       O582   2.231       .  S
In574       O583   2.235       .  S
In574       O586   2.239       .  S
C575        O581   1.261       .  A
C575        O583   1.256       .  A
O576        C584   1.261       .  A
O577        C584   1.259       .  A
C578        O585   1.255       .  A
C578        O579   1.262       .  A
C578        C616   1.477       .  S
C580        O582   1.255       .  A
C580        O586   1.261       .  A
C584        C819   1.458       .  S
In587       O589   2.238       .  S
In587       O590   2.219       .  S
In587       O598   2.203       .  S
In587       O592   2.292       .  S
In587       O594   2.261       .  S
In587       O595   2.237       .  S
In587       O596   2.233       .  S
In587       O599   2.231       .  S
C588        O594   1.263       .  A
C588        O596   1.258       .  A
O589        C597   1.262       .  A
O590        C597   1.254       .  A
C591        O598   1.253       .  A
C591        O592   1.262       .  A
C591        C688   1.475       .  S
C593        O595   1.258       .  A
C593        O599   1.262       .  A
C593        C610   1.457       .  S
C597        C858   1.448   1_554  S
In600       O602   2.248       .  S
In600       O603   2.223       .  S
In600       O611   2.219       .  S
In600       O605   2.255       .  S
In600       O607   2.261       .  S
In600       O608   2.226       .  S
In600       O609   2.247       .  S
In600       O612   2.233       .  S
C601        O607   1.256       .  A
C601        O609   1.256       .  A
O602        C610   1.264       .  A
O603        C610   1.259       .  A
C604        O611   1.258       .  A
C604        O605   1.263       .  A
C604        C628   1.481       .  S
C606        O608   1.256       .  A
C606        O612   1.262       .  A
C606        C849   1.448       .  S
C613        C614   1.423       .  A
C613        C618   1.439       .  A
C614        C615   1.415       .  A
C614        H619   1.084       .  S
C615        C616   1.407       .  A
C615        C622   1.442       .  S
C616        C617   1.389       .  A
C617        C618   1.386       .  A
C617        H620   1.088       .  S
C618        C621   1.445       .  S
C621        N623   1.158       .  T
C622        N624   1.157       .  T
C625        C626   1.420       .  A
C625        C630   1.434       .  A
C626        C627   1.401       .  A
C626        H631   1.079       .  S
C627        C628   1.407       .  A
C627        C634   1.444       .  S
C628        C629   1.399       .  A
C629        C630   1.396       .  A
C629        H632   1.085       .  S
C630        C633   1.445       .  S
C633        N635   1.157       .  T
C634        N636   1.157       .  T
C637        C638   1.420       .  A
C637        C642   1.448       .  A
C638        C891   1.411   1_565  A
C638        H643   1.085       .  S
C639        C890   1.411   1_544  A
C639        C640   1.429       .  A
C639        C646   1.444       .  S
C640        C641   1.409   1_545  A
C641        C894   1.418   1_554  A
C641        H644   1.086       .  S
C642        C893   1.418       .  A
C642        C645   1.439       .  S
C645        N647   1.158       .  T
C646        N648   1.158       .  T
C649        C650   1.412   1_565  A
C649        C654   1.441       .  A
C650        C651   1.418       .  A
C650        H655   1.079       .  S
C651        C652   1.446       .  A
C651        C658   1.449       .  S
C652        C653   1.407   1_545  A
C653        C654   1.413       .  A
C653        H656   1.079       .  S
C654        C657   1.442       .  S
C657        N659   1.157       .  T
C658        N660   1.158       .  T
C661        C662   1.431       .  A
C661        C666   1.435       .  A
C662        C663   1.409       .  A
C662        H667   1.080       .  S
C663        C664   1.404       .  A
C663        C670   1.443       .  S
C664        C665   1.395       .  A
C665        C666   1.397       .  A
C665        H668   1.086       .  S
C666        C669   1.438       .  S
C669        N923   1.158   1_554  T
C670        N672   1.157       .  T
N671        C921   1.158       .  T
C673        C674   1.423       .  A
C673        C678   1.432       .  A
C674        C675   1.403       .  A
C674        H679   1.075       .  S
C675        C676   1.407       .  A
C675        C682   1.445       .  S
C676        C677   1.398       .  A
C677        C678   1.401       .  A
C677        H680   1.085       .  S
C678        C681   1.443   1_554  S
C681        N935   1.158       .  T
C682        N684   1.157       .  T
N683        C933   1.158       .  T
C685        C686   1.420       .  A
C685        C690   1.432       .  A
C686        C687   1.407       .  A
C686        H691   1.083       .  S
C687        C688   1.405       .  A
C687        C694   1.442       .  S
C688        C689   1.394       .  A
C689        C690   1.391       .  A
C689        H692   1.087       .  S
C693        N695   1.158       .  T
C694        N696   1.157       .  T
C697        C698   1.419       .  A
C697        C702   1.432       .  A
C698        C699   1.405       .  A
C698        H703   1.080       .  S
C699        C700   1.409       .  A
C699        C706   1.443       .  S
C700        C701   1.397       .  A
C701        C702   1.393       .  A
C701        H704   1.086       .  S
C702        C705   1.445       .  S
C705        N707   1.158   1_655  T
C706        N708   1.157       .  T
C709        C710   1.419       .  A
C709        C714   1.434       .  A
C710        C711   1.396       .  A
C710        H715   1.083       .  S
C711        C712   1.407       .  A
C711        C718   1.445       .  S
C712        C713   1.398       .  A
C713        C714   1.402       .  A
C713        H716   1.086       .  S
C714        C717   1.442       .  S
C717        N719   1.158       .  T
C718        N720   1.157       .  T
C721        C722   1.421       .  A
C721        C726   1.436       .  A
C722        C723   1.406       .  A
C722        H727   1.082       .  S
C723        C724   1.403       .  A
C723        C730   1.443       .  S
C724        C725   1.393       .  A
C725        C726   1.396       .  A
C725        H728   1.087       .  S
C726        C729   1.445   1_655  S
C730        N732   1.157       .  T
C733        C734   1.413       .  A
C734        C987   1.400       .  A
C734        H739   1.077       .  S
C735        C986   1.400   1_554  A
C735        C736   1.424       .  A
C735        C742   1.445       .  S
C737        C990   1.404   1_554  A
C737        H740   1.079       .  S
C738        C989   1.404       .  A
C738        C741   1.443       .  S
C741        N743   1.157       .  T
C742        N744   1.158       .  T
C745        C746   1.413       .  A
C746        C747   1.404       .  A
C746        H751   1.077       .  S
C747        C748   1.424       .  A
C747        C754   1.441       .  S
C749        C750   1.403       .  A
C749        H752   1.079       .  S
C750        C753   1.445       .  S
C753        N755   1.157       .  T
C754        N756   1.157       .  T
C757        C973   1.577   1_455  S
C758        C937   1.569       .  S
C758        C988   1.574       .  S
C758        C997   1.576       .  S
In759       O761   2.242       .  S
In759       O762   2.223       .  S
In759       O770   2.236       .  S
In759       O764   2.254       .  S
In759       O766   2.284       .  S
In759       O767   2.233       .  S
In759       O768   2.245       .  S
In759       O771   2.236       .  S
C760        O766   1.258       .  A
C760        O768   1.255       .  A
O761        C769   1.263       .  A
O762        C769   1.256       .  A
C763        O770   1.260       .  A
C763        O764   1.262       .  A
C763        C928   1.487       .  S
C765        O767   1.257       .  A
C765        O771   1.263       .  A
C765        C782   1.454       .  S
In772       O774   2.252       .  S
In772       O775   2.232       .  S
In772       O783   2.234       .  S
In772       O777   2.265       .  S
In772       O779   2.279       .  S
In772       O780   2.225       .  S
In772       O781   2.237       .  S
In772       O784   2.228       .  S
C773        O779   1.259       .  A
C773        O781   1.253       .  A
C773        C799   1.464       .  S
O774        C782   1.260       .  A
O775        C782   1.253       .  A
C776        O783   1.258       .  A
C776        O777   1.262       .  A
C776        C976   1.473       .  S
C778        O780   1.260       .  A
C778        O784   1.265       .  A
In785       O787   2.229       .  S
In785       O788   2.222       .  S
In785       O796   2.213       .  S
In785       O790   2.290       .  S
In785       O792   2.285       .  S
In785       O793   2.240       .  S
In785       O794   2.240       .  S
In785       O797   2.225       .  S
C786        O792   1.260       .  A
C786        O794   1.254       .  A
O787        C795   1.263       .  A
O788        C795   1.256       .  A
C789        O796   1.257       .  A
C789        O790   1.264       .  A
C789        C916   1.489       .  S
C791        O793   1.257       .  A
C791        O797   1.261       .  A
C795        C804   1.449       .  S
In798       O800   2.255       .  S
In798       O801   2.216       .  S
In798       O809   2.238       .  S
In798       O803   2.242       .  S
In798       O805   2.274       .  S
In798       O806   2.215       .  S
In798       O807   2.242       .  S
In798       O810   2.237       .  S
C799        O805   1.257       .  A
C799        O807   1.255       .  A
O800        C808   1.262       .  A
O801        C808   1.254       .  A
C802        O809   1.259       .  A
C802        O803   1.262       .  A
C802        C964   1.477       .  S
C804        O806   1.257       .  A
C804        O810   1.265       .  A
C811        C865   1.574       .  S
C811        C877   1.570       .  S
C811        C889   1.612       .  S
C811        C901   1.604       .  S
C812        C892   1.594       .  S
C812        C904   1.614       .  S
C812        C913   1.592       .  S
C812        C925   1.603       .  S
In813       O815   2.245       .  S
In813       O816   2.229       .  S
In813       O824   2.218       .  S
In813       O818   2.268       .  S
In813       O820   2.266       .  S
In813       O821   2.222       .  S
In813       O822   2.249       .  S
In813       O825   2.253       .  S
C814        O820   1.257       .  A
C814        O822   1.257       .  A
C814        C840   1.465       .  S
O815        C823   1.262       .  A
O816        C823   1.256       .  A
C817        O824   1.258       .  A
C817        O818   1.262       .  A
C817        C952   1.482       .  S
C819        O821   1.259       .  A
C819        O825   1.264       .  A
C823        C832   1.452       .  S
In826       O828   2.229       .  S
In826       O829   2.245       .  S
In826       O837   2.197       .  S
In826       O831   2.298       .  S
In826       O833   2.261       .  S
In826       O834   2.231       .  S
In826       O835   2.235       .  S
In826       O838   2.238       .  S
C827        O833   1.261       .  A
C827        O835   1.256       .  A
O828        C836   1.261       .  A
O829        C836   1.259       .  A
C830        O837   1.255       .  A
C830        O831   1.262       .  A
C830        C868   1.477       .  S
C832        O834   1.255       .  A
C832        O838   1.261       .  A
In839       O841   2.238       .  S
In839       O842   2.219       .  S
In839       O850   2.203       .  S
In839       O844   2.292       .  S
In839       O846   2.261       .  S
In839       O847   2.237       .  S
In839       O848   2.233       .  S
In839       O851   2.231       .  S
C840        O846   1.263       .  A
C840        O848   1.258       .  A
O841        C849   1.262       .  A
O842        C849   1.254       .  A
C843        O850   1.253       .  A
C843        O844   1.262       .  A
C843        C940   1.475       .  S
C845        O847   1.258       .  A
C845        O851   1.262       .  A
C845        C862   1.457       .  S
In852       O854   2.248       .  S
In852       O855   2.223       .  S
In852       O863   2.219       .  S
In852       O857   2.254       .  S
In852       O859   2.261       .  S
In852       O860   2.226       .  S
In852       O861   2.247       .  S
In852       O864   2.233       .  S
C853        O859   1.256       .  A
C853        O861   1.256       .  A
O854        C862   1.264       .  A
O855        C862   1.258       .  A
C856        O863   1.258       .  A
C856        O857   1.263       .  A
C856        C880   1.481       .  S
C858        O860   1.256       .  A
C858        O864   1.262       .  A
C865        C866   1.423       .  A
C865        C870   1.439       .  A
C866        C867   1.415       .  A
C866        H871   1.084       .  S
C867        C868   1.407       .  A
C867        C874   1.442       .  S
C868        C869   1.389       .  A
C869        C870   1.386       .  A
C869        H872   1.088       .  S
C870        C873   1.445       .  S
C873        N875   1.158       .  T
C874        N876   1.157       .  T
C877        C878   1.420       .  A
C877        C882   1.434       .  A
C878        C879   1.401       .  A
C878        H883   1.079       .  S
C879        C880   1.407       .  A
C879        C886   1.444       .  S
C880        C881   1.399       .  A
C881        C882   1.396       .  A
C881        H884   1.085       .  S
C882        C885   1.445       .  S
C885        N887   1.157   1_556  T
C886        N888   1.157       .  T
C889        C890   1.420       .  A
C889        C894   1.448       .  A
C890        H895   1.085       .  S
C891        C892   1.428       .  A
C891        C898   1.444       .  S
C892        C893   1.409   1_545  A
C893        H896   1.086       .  S
C894        C897   1.439       .  S
C897        N899   1.158       .  T
C898        N900   1.158       .  T
C901        C902   1.412   1_565  A
C901        C906   1.441       .  A
C902        C903   1.418       .  A
C902        H907   1.079       .  S
C903        C904   1.446       .  A
C903        C910   1.449       .  S
C904        C905   1.407   1_545  A
C905        C906   1.413       .  A
C905        H908   1.079       .  S
C906        C909   1.442       .  S
C909        N911   1.157       .  T
C910        N912   1.158       .  T
C913        C914   1.431       .  A
C913        C918   1.435       .  A
C914        C915   1.409       .  A
C914        H919   1.080       .  S
C915        C916   1.404       .  A
C915        C922   1.443       .  S
C916        C917   1.395       .  A
C917        C918   1.397       .  A
C917        H920   1.086       .  S
C918        C921   1.438       .  S
C922        N924   1.157       .  T
C925        C926   1.423       .  A
C925        C930   1.432       .  A
C926        C927   1.403       .  A
C926        H931   1.075       .  S
C927        C928   1.407       .  A
C927        C934   1.445       .  S
C928        C929   1.398       .  A
C929        C930   1.401       .  A
C929        H932   1.085       .  S
C930        C933   1.443       .  S
C934        N936   1.157       .  T
C937        C938   1.420       .  A
C937        C942   1.432       .  A
C938        C939   1.407       .  A
C938        H943   1.083       .  S
C939        C940   1.406       .  A
C939        C946   1.442       .  S
C940        C941   1.394       .  A
C941        C942   1.391       .  A
C941        H944   1.087       .  S
C945        N947   1.158       .  T
C946        N948   1.157       .  T
C949        C950   1.419       .  A
C949        C954   1.432       .  A
C950        C951   1.405       .  A
C950        H955   1.080       .  S
C951        C952   1.409       .  A
C951        C958   1.443       .  S
C952        C953   1.397       .  A
C953        C954   1.393       .  A
C953        H956   1.086       .  S
C954        C957   1.445       .  S
C957        N959   1.158   1_655  T
C958        N960   1.157       .  T
C961        C962   1.419       .  A
C961        C966   1.434       .  A
C962        C963   1.396       .  A
C962        H967   1.083       .  S
C963        C964   1.407       .  A
C963        C970   1.445       .  S
C964        C965   1.398       .  A
C965        C966   1.402       .  A
C965        H968   1.086       .  S
C966        C969   1.442       .  S
C969        N971   1.158       .  T
C970        N972   1.157       .  T
C973        C974   1.421       .  A
C973        C978   1.436       .  A
C974        C975   1.406       .  A
C974        H979   1.082       .  S
C975        C976   1.403       .  A
C975        C982   1.443       .  S
C976        C977   1.393       .  A
C977        C978   1.396       .  A
C977        H980   1.087       .  S
C978        C981   1.445   1_655  S
C982        N984   1.157       .  T
C985        C986   1.413       .  A
C986        H991   1.077       .  S
C987        C988   1.424       .  A
C987        C994   1.445       .  S
C989        H992   1.079       .  S
C990        C993   1.443       .  S
C993        N995   1.157       .  T
C994        N996   1.158       .  T
C997        C998   1.413       .  A
C998        C999   1.404       .  A
C998       H1003   1.077       .  S
C999       C1000   1.424       .  A
C999       C1006   1.441       .  S
C1001      C1002   1.403       .  A
C1001      H1004   1.079       .  S
C1002      C1005   1.445       .  S
C1005      N1007   1.157       .  T
C1006      N1008   1.157       .  T
