geometry optimzed in LAMMPS
_audit_creation_date              2020-11-30 
_audit_creation_method            'lammps2cif' 
_symmetry_space_group_name_H-M    'P1' 
_symmetry_Int_Tables_number       1 
_symmetry_cell_setting            triclinic 
loop_ 
_symmetry_equiv_pos_as_xyz 
  x,y,z 
_cell_length_a                    35.01057707 
_cell_length_b                    35.17197983659635 
_cell_length_c                    34.809063280743366 
_cell_angle_alpha                 90.04764829421745 
_cell_angle_beta                  90.46289878689596 
_cell_angle_gamma                 89.9189316601891 
loop_ 
_atom_site_label 
_atom_site_type_symbol 
_atom_site_fract_x 
_atom_site_fract_y 
_atom_site_fract_z 
_atom_site_charge 
C1          C  0.61545403  0.66649573  0.66193515     0.80100
N2          N  0.62388556  0.68103667  0.62667202    -0.78200
C3          C  0.65658140  0.67143651  0.60832910     0.82500
N4          N  0.68108908  0.64697463  0.62583469    -0.78200
C5          C  0.67388189  0.63245098  0.66096167     0.82600
N6          N  0.64086633  0.64229014  0.67887425    -0.79900
C7          C  0.19100739  0.80129557  0.25858470     0.80100
N8          N  0.20082774  0.78744961  0.29365282    -0.78200
C9          C  0.17752372  0.76354142  0.31302722     0.82500
N10         N  0.14383870  0.75305289  0.29636763    -0.78200
C11         C  0.13317801  0.76689480  0.26132257     0.82600
N12         N  0.15698864  0.79097783  0.24265272    -0.79900
C13         C  0.64998793  0.71822486  0.13881373     0.80100
N14         N  0.68407129  0.72667968  0.12211341    -0.78200
C15         C  0.70606351  0.75571620  0.13584264     0.82500
N16         N  0.69429058  0.77512028  0.16744656    -0.78200
C17         C  0.66076910  0.76677492  0.18456813     0.82600
N18         N  0.63895705  0.73841400  0.16999318    -0.79900
C19         C  0.22752135  0.28504221  0.28335054     0.80100
N20         N  0.24994091  0.25528705  0.29385814    -0.78200
C21         C  0.28185821  0.24607053  0.27398359     0.82500
N22         N  0.29120993  0.26726246  0.24301308    -0.78200
C23         C  0.26931717  0.29716099  0.23156124     0.82600
N24         N  0.23746983  0.30571499  0.25188371    -0.79900
C25         C  0.69359886  0.19630270  0.18342361     0.80100
N26         N  0.72608869  0.18734686  0.20307181    -0.78200
C27         C  0.73916349  0.20927353  0.23257664     0.82500
N28         N  0.71896248  0.24066364  0.24229561    -0.78200
C29         C  0.68619053  0.24995301  0.22341297     0.82600
N30         N  0.67408582  0.22810391  0.19361175    -0.79900
C31         C  0.79463243  0.17978872  0.63876514     0.80100
N32         N  0.76585365  0.16472079  0.61747688    -0.78200
C33         C  0.74523593  0.13468486  0.63022067     0.82500
N34         N  0.75307417  0.12019957  0.66567383    -0.78200
C35         C  0.78194712  0.13451528  0.68762024     0.82600
N36         N  0.80224866  0.16444943  0.67379391    -0.79900
C37         C  0.15781822  0.65193312  0.75115635     0.80100
N38         N  0.19365500  0.64821726  0.76555050    -0.78200
C39         C  0.20625570  0.67001474  0.79522721     0.82500
N40         N  0.18272015  0.69688963  0.81008438    -0.78200
C41         C  0.14637009  0.70088487  0.79646027     0.82600
N42         N  0.13446829  0.67853927  0.76685775    -0.79900
O43         O  0.97258063  0.04580703  0.06472481    -0.88500
C44         C  0.04609505  0.12922894  0.04902950     0.87500
Mg45       Mg  0.98846981  0.99894511  0.10026478     1.58100
O46         O  0.04119370  0.06762199  0.96918656    -0.88200
O47         O  0.95851015  0.05196535  0.00313817    -0.75600
C48         C  0.17146337  0.97029510  0.05344918     0.92600
O49         O  0.03571591  0.08020920  0.12082286    -0.75400
O50         O  0.15182632  0.95648064  0.08136157    -0.82900
Mg51       Mg  0.98153581  0.10155926  0.08921431     1.58000
C52         C  0.13869569  0.02661697  0.91574800     0.92500
O53         O  0.92502632  0.12985687  0.05635531    -0.81100
H54         H  0.00901219  0.04071717  0.92990196    -0.06500
C55         C  0.12656275  0.05524959  0.04229091     0.87400
O56         O  0.00500355  0.96293799  0.04800663    -0.75700
O57         O  0.01655892  0.11137556  0.04104980    -0.88400
O58         O  0.12375817  0.06006083  0.91993468    -0.81200
C59         C  0.05604327  0.17118355  0.96117593     0.92600
C60         C  0.92053062  0.14378791  0.02208506     0.92500
Mg61       Mg  0.10076408  0.99023464  0.99193491     1.58000
O62         O  0.15548239  0.98052455  0.02261157    -0.81100
O63         O  0.04816767  0.00667012  0.95614055    -0.75400
O64         O  0.02548714  0.15648867  0.97288541    -0.81200
O65         O  0.95423602  0.08871795  0.14965117    -0.82900
O66         O  0.05903899  0.92769369  0.12432382    -0.81300
C67         C  0.03234920  0.03883444  0.95046498     0.86900
O68         O  0.06619888  0.97549054  0.03992655    -0.88400
O69         O  0.10857028  0.04635198  0.01279693    -0.88500
O70         O  0.12298740  0.03753255  0.07393331    -0.75600
Mg71       Mg  0.99442686  0.10302074  0.98468239     1.58000
O72         O  0.08265653  0.15064052  0.94655230    -0.82900
H73         H  0.93226146  0.01462963  0.03860563    -0.06700
O74         O  0.04484159  0.01965309  0.10726790    -0.88200
H75         H  0.07839726  0.04832875  0.14388834    -0.06500
H76         H  0.03833148  0.93632875  0.00874259    -0.06700
C77         C  0.05377366  0.04900508  0.12495136     0.86900
C78         C  0.95313309  0.03708696  0.03602927     0.87500
C79         C  0.03699713  0.95702273  0.03181091     0.87500
H80         H  0.14540618  0.07967781  0.04135867    -0.06600
O81         O  0.07693405  0.12510422  0.03035824    -0.75700
Mg82       Mg  0.09191469  0.98390475  0.09583975     1.58000
H83         H  0.04591475  0.14844238  0.07336627    -0.06700
C84         C  0.96799057  0.06126396  0.17004035     0.92500
O85         O  0.00011434  0.94898025  0.13640227    -0.82900
C86         C  0.02548942  0.92363038  0.13956945     0.92600
O87         O  0.94507008  0.13892150  0.99625122    -0.82900
Mg88       Mg  0.09702978  0.09279398  0.97634638     1.58200
O89         O  0.97861505  0.03061174  0.15459334    -0.81200
O90         O  0.13572293  0.00129796  0.94119492    -0.82900
C91         C  0.10342767  0.26331073  0.98053940     0.80100
N92         N  0.09549718  0.22844218  0.96584834    -0.78200
C93         C  0.06203801  0.21133115  0.97283597     0.82500
N94         N  0.03620652  0.22936191  0.99589395    -0.78200
C95         C  0.04356741  0.26425321  0.01183628     0.82600
N96         N  0.07721294  0.28185057  0.00287396    -0.79900
C97         C  0.97737964  0.10022679  0.26911404     0.80100
N98         N  0.96713167  0.09599023  0.23159916    -0.78200
C99         C  0.97796220  0.06511114  0.21156171     0.82500
N100        N  0.00046250  0.03833735  0.22937289    -0.78200
C101        C  0.01245933  0.04250202  0.26670387     0.82600
N102        N  0.99941728  0.07315796  0.28689583    -0.79900
C103        C  0.26760403  0.98817354  0.09554238     0.80100
N104        N  0.23154267  0.97491211  0.09018789    -0.78200
C105        C  0.21232907  0.98171051  0.05735421     0.82500
N106        N  0.22957096  0.00318443  0.02954227    -0.78200
C107        C  0.26559946  0.01783866  0.03454936     0.82600
N108        N  0.28510068  0.00896949  0.06752567    -0.79900
O109        O  0.89450107  0.55979569  0.46559929    -0.88500
C110        C  0.81023157  0.55233112  0.39006432     0.87500
Mg111      Mg  0.94290722  0.59402361  0.45168699     1.58100
O112        O  0.86485491  0.46853171  0.39120853    -0.88200
O113        O  0.88457479  0.49829983  0.47488181    -0.75600
C114        C  0.97350854  0.54958640  0.26888362     0.92600
O115        O  0.86209018  0.61850207  0.40375466    -0.75400
O116        O  0.98816766  0.57566943  0.29032719    -0.82900
Mg117      Mg  0.83973373  0.58689401  0.45722917     1.58000
C118        C  0.90509610  0.41707792  0.29250712     0.92500
O119        O  0.81134965  0.55345362  0.51330795    -0.81100
H120        H  0.88811933  0.42634644  0.42210756    -0.06500
C121        C  0.88511913  0.54217790  0.30890521     0.87400
O122        O  0.97719905  0.54104730  0.43467309    -0.75700
O123        O  0.82698101  0.54161498  0.41967853    -0.88400
O124        O  0.87093237  0.42313561  0.30553735    -0.81200
C125        C  0.75946620  0.47166935  0.37515897     0.92600
C126        C  0.79578901  0.52010146  0.51653337     0.92500
Mg127      Mg  0.94646368  0.48822137  0.33626856     1.58000
O128        O  0.96093186  0.51909491  0.28292927    -0.81100
O129        O  0.92560524  0.45245771  0.38667236    -0.75400
O130        O  0.77571894  0.47978378  0.40663368    -0.81200
O131        O  0.85568208  0.64539500  0.48629881    -0.82900
O132        O  0.01444658  0.61787130  0.38151577    -0.81300
C133        C  0.89223201  0.44774585  0.40017143     0.86900
O134        O  0.96381605  0.53432181  0.37299283    -0.88400
O135        O  0.89148269  0.51237577  0.32678429    -0.88500
O136        O  0.90464670  0.57220247  0.31416891    -0.75600
Mg137      Mg  0.83112627  0.48484824  0.43871926     1.58000
O138        O  0.77862942  0.45741407  0.34704275    -0.82900
H139        H  0.92535067  0.52885382  0.50281130    -0.06700
O140        O  0.92221876  0.60241332  0.39481031    -0.88200
H141        H  0.89512539  0.64038317  0.36162196    -0.06500
H142        H  0.00178859  0.50132869  0.40046766    -0.06700
C143        C  0.89356944  0.62134655  0.38591582     0.86900
C144        C  0.90195753  0.52937901  0.48237489     0.87500
C145        C  0.98216466  0.52499763  0.40222625     0.87500
H146        H  0.86137735  0.54301617  0.28878634    -0.06600
O147        O  0.81350113  0.53524970  0.35800628    -0.75700
Mg148      Mg  0.95831798  0.59064576  0.34806484     1.58000
H149        H  0.79290312  0.57783762  0.39127799    -0.06700
C150        C  0.88299957  0.66528801  0.47189142     0.92500
O151        O  0.99390692  0.62832017  0.44113257    -0.82900
C152        C  0.01872586  0.63253039  0.41543087     0.92600
O153        O  0.79747643  0.49586275  0.48992396    -0.82900
Mg154      Mg  0.84129367  0.48029904  0.33517450     1.58200
O155        O  0.91372059  0.64967063  0.46164059    -0.81200
O156        O  0.93223991  0.43982773  0.29908495    -0.82900
C157        C  0.65850849  0.48125077  0.34129807     0.80100
N158        N  0.69594788  0.47097550  0.34332969    -0.78200
C159        C  0.71870689  0.48434224  0.37169869     0.82500
N160        N  0.70350100  0.50916219  0.39808287    -0.78200
C161        C  0.66630305  0.52141073  0.39548298     0.82600
N162        N  0.64369123  0.50577910  0.36767504    -0.79900
C163        C  0.94364912  0.60220998  0.18213729     0.80100
N164        N  0.96172065  0.59271846  0.21539002    -0.78200
C165        C  0.96130931  0.55694562  0.22869834     0.82500
N166        N  0.94144653  0.53007658  0.20840051    -0.78200
C167        C  0.92253307  0.53865683  0.17488001     0.82600
N168        N  0.92437491  0.57513482  0.16121795    -0.79900
C169        C  0.83457265  0.75379452  0.44024804     0.80100
N170        N  0.86251389  0.77246509  0.42041172    -0.78200
C171        C  0.89845639  0.75729943  0.41876908     0.82500
N172        N  0.90556568  0.72387188  0.43816739    -0.78200
C173        C  0.87752347  0.70530213  0.45819119     0.82600
N174        N  0.84233141  0.72061283  0.45861777    -0.79900
O175        O  0.05637924  0.85705006  0.45391542    -0.88500
C176        C  0.13620679  0.87478896  0.37523571     0.87500
Mg177      Mg  0.00893304  0.82087767  0.43989391     1.58100
O178        O  0.07447968  0.95393535  0.38415515    -0.88200
O179        O  0.06392200  0.91795602  0.46747801    -0.75600
C180        C  0.97134927  0.86944294  0.25766634     0.92600
O181        O  0.08833205  0.80187196  0.38916337    -0.75400
O182        O  0.95830842  0.84180888  0.27800782    -0.82900
Mg183      Mg  0.11221433  0.83358667  0.44230822     1.58000
C184        C  0.02669807  0.00806724  0.28780351     0.92500
O185        O  0.14352474  0.86569837  0.49770287    -0.81100
H186        H  0.04865921  0.99198509  0.41810217    -0.06500
C187        C  0.05860797  0.88222876  0.29988866     0.87400
O188        O  0.97116740  0.87239463  0.42495219    -0.75700
O189        O  0.11965974  0.88169870  0.40583609    -0.88400
O190        O  0.06106920  0.00402394  0.30143566    -0.81200
C191        C  0.17815743  0.96438868  0.36342907     0.92600
C192        C  0.15896712  0.89904158  0.50102739     0.92500
Mg193      Mg  0.99370303  0.93091715  0.32790204     1.58000
O194        O  0.98232120  0.89995746  0.27325200    -0.81100
O195        O  0.01269306  0.96611064  0.38017659    -0.75400
O196        O  0.16491109  0.95058247  0.39403935    -0.81200
O197        O  0.10178056  0.77405538  0.47193353    -0.82900
O198        O  0.93417788  0.79730714  0.37180908    -0.81300
C199        C  0.04577869  0.97190018  0.39459661     0.86900
O200        O  0.98138054  0.88246133  0.36331585    -0.88400
O201        O  0.04991246  0.91148992  0.31774315    -0.88500
O202        O  0.04125005  0.85069581  0.30428562    -0.75600
Mg203      Mg  0.11315190  0.93712128  0.42882668     1.58000
O204        O  0.15579040  0.97858625  0.33765864    -0.82900
H205        H  0.02709550  0.88327313  0.49537663    -0.06700
O206        O  0.02712593  0.81513052  0.38254819    -0.88200
H207        H  0.05430279  0.77889922  0.34785765    -0.06500
H208        H  0.94296841  0.91220508  0.39332985    -0.06700
C209        C  0.05614885  0.79765809  0.37239980     0.86900
C210        C  0.04870355  0.88558377  0.47351435     0.87500
C211        C  0.96397541  0.88952447  0.39344713     0.87500
H212        H  0.08253985  0.88339467  0.28052481    -0.06600
O213        O  0.13085965  0.89458390  0.34501318    -0.75700
Mg214      Mg  0.98893772  0.82732595  0.33694264     1.58000
H215        H  0.15537892  0.85073403  0.37397687    -0.06700
C216        C  0.07388171  0.75294378  0.46049132     0.92500
O217        O  0.95851379  0.78358260  0.42973882    -0.82900
C218        C  0.93192676  0.78057623  0.40508116     0.92600
O219        O  0.15296635  0.92472068  0.47637722    -0.82900
Mg220      Mg  0.09667237  0.94825012  0.32671077     1.58200
O221        O  0.04252130  0.76739142  0.44965773    -0.81200
O222        O  0.00169204  0.98254370  0.29208312    -0.82900
C223        C  0.09764243  0.65210519  0.48179231     0.80100
N224        N  0.09857006  0.69077309  0.48186461    -0.78200
C225        C  0.07664385  0.71085581  0.45701447     0.82500
N226        N  0.05320504  0.69168965  0.43172592    -0.78200
C227        C  0.05340468  0.65280737  0.42967388     0.82600
N228        N  0.07525252  0.63357473  0.45567122    -0.79900
C229        C  0.27871346  0.98219481  0.33447795     0.80100
N230        N  0.29768510  0.95453138  0.35449134    -0.78200
C231        C  0.27835104  0.92886644  0.37614513     0.82500
N232        N  0.23960576  0.93286448  0.37896767    -0.78200
C233        C  0.22009734  0.95995056  0.35836856     0.82600
N234        N  0.23991278  0.98426042  0.33621061    -0.79900
C235        C  0.96569371  0.83875135  0.15543881     0.80100
N236        N  0.99088400  0.86311243  0.13845360    -0.78200
C237        C  0.01127132  0.88882037  0.15969394     0.82500
N238        N  0.00377773  0.89104250  0.19823069    -0.78200
C239        C  0.97890749  0.86641117  0.21569634     0.82600
N240        N  0.96047595  0.84039323  0.19407547    -0.79900
O241        O  0.57078379  0.46288805  0.89382197    -0.88500
C242        C  0.54973207  0.39885800  0.80402967     0.87500
Mg243      Mg  0.61077302  0.44296391  0.93809826     1.58100
O244        O  0.47466231  0.39907635  0.87145438    -0.88200
O245        O  0.50982924  0.48017094  0.89349217    -0.75600
C246        C  0.56422597  0.26045523  0.95623087     0.92600
O247        O  0.62426037  0.40225130  0.85076815    -0.75400
O248        O  0.59199724  0.27964801  0.97097370    -0.82900
Mg249      Mg  0.59406055  0.45847746  0.83427836     1.58000
C250        C  0.42367816  0.29695978  0.90693945     0.92500
O251        O  0.56350253  0.51674108  0.81172958    -0.81100
H252        H  0.43758885  0.42768240  0.90415938    -0.06500
C253        C  0.54753693  0.31144247  0.87316840     0.87400
O254        O  0.56136511  0.42413503  0.97681803    -0.75700
O255        O  0.54375222  0.42674252  0.82495289    -0.88400
O256        O  0.42564329  0.31603726  0.87514904    -0.81200
C257        C  0.46121363  0.39372197  0.76720279     0.92600
C258        C  0.52881086  0.52481914  0.80166249     0.92500
Mg259      Mg  0.50163649  0.33154681  0.94265916     1.58000
O260        O  0.53325500  0.27655408  0.94705070    -0.81100
O261        O  0.46505308  0.38496638  0.93235042    -0.75400
O262        O  0.47237842  0.42399669  0.78320286    -0.81200
O263        O  0.65526990  0.48364522  0.84614256    -0.82900
O264        O  0.63287888  0.37016125  0.00403624    -0.81300
C265        C  0.45791413  0.40450544  0.90229970     0.86900
O266        O  0.54985746  0.36535148  0.95794804    -0.88400
O267        O  0.51924746  0.32925214  0.88476436    -0.88500
O268        O  0.57989194  0.31285313  0.89018118    -0.75600
Mg269      Mg  0.48869841  0.44938667  0.83941834     1.58000
O270        O  0.44718869  0.36605982  0.78675567    -0.82900
H271        H  0.54905063  0.50166897  0.93097596    -0.06700
O272        O  0.61432883  0.38907577  0.91188739    -0.88200
H273        H  0.64760549  0.35698019  0.87842444    -0.06500
H274        H  0.52238740  0.38957493  0.00189453    -0.06700
C275        C  0.62966161  0.38200456  0.88065685     0.86900
C276        C  0.54366831  0.48310355  0.90666757     0.87500
C277        C  0.54394747  0.39247622  0.98002115     0.87500
H278        H  0.54482581  0.29459016  0.84723013    -0.06600
O279        O  0.53139810  0.36785469  0.80726830    -0.75700
Mg280      Mg  0.60439230  0.34041646  0.94569933     1.58000
H281        H  0.57223206  0.40053824  0.78298043    -0.06700
C282        C  0.67602255  0.46824955  0.87253541     0.92500
O283        O  0.65161966  0.42700669  0.98282355    -0.82900
C284        C  0.65098086  0.40203277  0.00870735     0.92600
O285        O  0.50129344  0.50235560  0.80776400    -0.82900
Mg286      Mg  0.48002031  0.34553861  0.84130553     1.58200
O287        O  0.66132835  0.45548248  0.90279841    -0.81200
O288        O  0.45089658  0.29660038  0.93090943    -0.82900
C289        C  0.50290852  0.34586598  0.68302502     0.80100
N290        N  0.52119758  0.37499015  0.66473399    -0.78200
C291        C  0.51768967  0.41114084  0.67862632     0.82500
N292        N  0.49502240  0.41733692  0.70993740    -0.78200
C293        C  0.47628034  0.38835266  0.72781452     0.82600
N294        N  0.48086182  0.35291422  0.71420173    -0.79900
C295        C  0.60178967  0.16212080  0.94353545     0.80100
N296        N  0.59850094  0.19909263  0.95458257    -0.78200
C297        C  0.56771194  0.21986344  0.94433792     0.82500
N298        N  0.54003129  0.20330488  0.92182744    -0.78200
C299        C  0.54331559  0.16656409  0.90912854     0.82600
N300        N  0.57380992  0.14569392  0.92156577    -0.79900
C301        C  0.77513742  0.46673492  0.83532882     0.80100
N302        N  0.79293906  0.44249587  0.86044421    -0.78200
C303        C  0.77251166  0.42510655  0.88874408     0.82500
N304        N  0.73495048  0.43487833  0.89274302    -0.78200
C305        C  0.71718530  0.45952145  0.86793627     0.82600
N306        N  0.73743168  0.47488115  0.83920478    -0.79900
O307        O  0.95989723  0.38473899  0.07148724    -0.88500
C308        C  0.88449819  0.30256643  0.05469279     0.87500
Mg309      Mg  0.94554594  0.43105254  0.10859363     1.58100
O310        O  0.88918745  0.36498119  0.97590302    -0.88200
O311        O  0.97253403  0.37833722  0.00974557    -0.75600
C312        C  0.76353101  0.46298497  0.06411433     0.92600
O313        O  0.89732500  0.34979453  0.12677266    -0.75400
O314        O  0.78359881  0.47680330  0.09191848    -0.82900
Mg315      Mg  0.95076579  0.32853992  0.09457355     1.58000
C316        C  0.79304316  0.41036988  0.92334027     0.92500
O317        O  0.00678877  0.30111798  0.06029257    -0.81100
H318        H  0.92138315  0.39197037  0.93731262    -0.06500
C319        C  0.80612845  0.37790487  0.04962932     0.87400
O320        O  0.92923596  0.46887257  0.05751234    -0.75700
O321        O  0.91425473  0.31991138  0.04675377    -0.88400
O322        O  0.80674616  0.37628999  0.92696795    -0.81200
C323        C  0.87062118  0.26129086  0.96613265     0.92600
C324        C  0.01012265  0.28663741  0.02611316     0.92500
Mg325      Mg  0.83250323  0.44364703  0.00101816     1.58000
O326        O  0.77887433  0.45310343  0.03302191    -0.81100
O327        O  0.88398799  0.42656421  0.96473382    -0.75400
O328        O  0.90149351  0.27548884  0.97840332    -0.81200
O329        O  0.97892629  0.33926392  0.15561052    -0.82900
O330        O  0.87604554  0.50282648  0.13444706    -0.81300
C331        C  0.89858697  0.39402348  0.95798604     0.86900
O332        O  0.86791423  0.45672438  0.04924381    -0.88400
O333        O  0.82374468  0.38721678  0.02028628    -0.88500
O334        O  0.81051522  0.39496964  0.08166124    -0.75600
Mg335      Mg  0.93512026  0.32809132  0.99060856     1.58000
O336        O  0.84406782  0.28257961  0.95208771    -0.82900
H337        H  0.99978967  0.41565850  0.04503003    -0.06700
O338        O  0.88910974  0.41089495  0.11498000    -0.88200
H339        H  0.85552434  0.38179663  0.15067680    -0.06500
H340        H  0.89524646  0.49673707  0.01928569    -0.06700
C341        C  0.87989004  0.38120365  0.13175170     0.86900
C342        C  0.97863704  0.39335962  0.04259541     0.87500
C343        C  0.89697273  0.47541041  0.04160097     0.87500
H344        H  0.78702823  0.35391015  0.04818945    -0.06600
O345        O  0.85334677  0.30752098  0.03617925    -0.75700
Mg346      Mg  0.84267267  0.44766493  0.10482340     1.58000
H347        H  0.88479972  0.28310429  0.07868878    -0.06700
C348        C  0.96483470  0.36600931  0.17653390     0.92500
O349        O  0.93472887  0.48048217  0.14634169    -0.82900
C350        C  0.90956927  0.50600026  0.15030055     0.92600
O351        O  0.98430983  0.29069404  0.00093111    -0.82900
Mg352      Mg  0.83292220  0.34120188  0.98273975     1.58200
O353        O  0.95468024  0.39722892  0.16182156    -0.81200
O354        O  0.79682116  0.43498116  0.94951162    -0.82900
C355        C  0.66238877  0.45988973  0.09583359     0.80100
N356        N  0.64719431  0.43388482  0.07077867    -0.78200
C357        C  0.66962721  0.41546031  0.04485011     0.82500
N358        N  0.70720535  0.42586286  0.04296908    -0.78200
C359        C  0.72276463  0.45198245  0.06778463     0.82600
N360        N  0.70017536  0.46855744  0.09401350    -0.79900
C361        C  0.96425231  0.33277628  0.27818555     0.80100
N362        N  0.93733842  0.35614584  0.29373113    -0.78200
C363        C  0.91820499  0.38219951  0.27196982     0.82500
N364        N  0.92813936  0.38526281  0.23411097    -0.78200
C365        C  0.95439651  0.36121739  0.21771923     0.82600
N366        N  0.97209605  0.33514339  0.24001689    -0.79900
C367        C  0.84009593  0.16029573  0.95661160     0.80100
N368        N  0.86212169  0.14334724  0.98425015    -0.78200
C369        C  0.88598719  0.16398494  0.00726865     0.82500
N370        N  0.88853122  0.20219882  0.00046271    -0.78200
C371        C  0.86596550  0.21985058  0.97337147     0.82600
N372        N  0.84187868  0.19865936  0.95177714    -0.79900
O373        O  0.35949439  0.97956842  0.87519893    -0.88500
C374        C  0.37514154  0.05339950  0.79058129     0.87500
Mg375      Mg  0.32477178  0.99506624  0.92286493     1.58100
O376        O  0.45458921  0.04787329  0.85339023    -0.88200
O377        O  0.42021501  0.96500725  0.86768440    -0.75600
C378        C  0.37045620  0.17729212  0.95574761     0.92600
O379        O  0.30385166  0.04254946  0.84141727    -0.75400
O380        O  0.34340640  0.15661987  0.96933483    -0.82900
Mg381      Mg  0.33441938  0.98871076  0.81912004     1.58000
C382        C  0.50813224  0.14633132  0.89593340     0.92500
O383        O  0.36548974  0.93236811  0.79013674    -0.81100
H384        H  0.49350468  0.01623623  0.88118847    -0.06500
C385        C  0.38176292  0.13311849  0.86683355     0.87400
O386        O  0.37735453  0.01143620  0.95914465    -0.75700
O387        O  0.38249710  0.02391735  0.80872142    -0.88400
O388        O  0.50411471  0.12993236  0.86282407    -0.81200
C389        C  0.46536042  0.06462887  0.74902736     0.92600
C390        C  0.39872919  0.92796033  0.77459420     0.92500
Mg391      Mg  0.43237260  0.10816768  0.93196367     1.58000
O392        O  0.40067884  0.16226740  0.94324034    -0.81100
O393        O  0.46828467  0.05609408  0.91480797    -0.75400
O394        O  0.45157517  0.03444263  0.76294658    -0.81200
O395        O  0.27483037  0.96056561  0.83189932    -0.82900
O396        O  0.30262365  0.06423782  0.99598991    -0.81300
C397        C  0.47329293  0.03943919  0.88266357     0.86900
O398        O  0.38542602  0.07255914  0.94712137    -0.88400
O399        O  0.41112141  0.11510239  0.87536085    -0.88500
O400        O  0.35074517  0.12966901  0.88542331    -0.75600
Mg401      Mg  0.43828253  0.00163798  0.81652327     1.58000
O402        O  0.47918672  0.09073194  0.77087355    -0.82900
H403        H  0.38549962  0.93881629  0.90578185    -0.06700
O404        O  0.31822836  0.05126812  0.90258145    -0.88200
H405        H  0.28200627  0.08498217  0.87406218    -0.06500
H406        H  0.41715636  0.04434811  0.98589031    -0.06700
C407        C  0.30038646  0.06043467  0.87306883     0.86900
C408        C  0.38786469  0.95983156  0.88335997     0.87500
C409        C  0.39378779  0.04323888  0.96524950     0.87500
H410        H  0.38229161  0.15196483  0.84227910    -0.06600
O411        O  0.39430693  0.08388651  0.79492230    -0.75700
Mg412      Mg  0.32971085  0.09772661  0.93951692     1.58000
H413        H  0.35103801  0.05347548  0.77081338    -0.06700
C414        C  0.25479546  0.97388335  0.85967424     0.92500
O415        O  0.28903457  0.00615000  0.97374920    -0.82900
C416        C  0.28676274  0.03110174  0.99976145     0.92600
O417        O  0.42495020  0.95235999  0.77905872    -0.82900
Mg418      Mg  0.44799050  0.10383046  0.82870020     1.58200
O419        O  0.27045249  0.98509973  0.89045935    -0.81200
O420        O  0.48239952  0.14470282  0.92107515    -0.82900
C421        C  0.48079481  0.09435997  0.64768186     0.80100
N422        N  0.48440079  0.09175802  0.68659279    -0.78200
C423        C  0.46071711  0.06930561  0.70690290     0.82500
N424        N  0.43325552  0.04889894  0.68783033    -0.78200
C425        C  0.42816367  0.05213169  0.64904892     0.82600
N426        N  0.45290301  0.07420925  0.62912742    -0.79900
C427        C  0.34196829  0.27843965  0.96966767     0.80100
N428        N  0.34307841  0.23982732  0.97230427    -0.78200
C429        C  0.36739384  0.21928371  0.95072722     0.82500
N430        N  0.39105465  0.23791108  0.92574399    -0.78200
C431        C  0.38921138  0.27653856  0.92102928     0.82600
N432        N  0.36505568  0.29642399  0.94403991    -0.79900
C433        C  0.15204350  0.96250023  0.83438240     0.80100
N434        N  0.13575135  0.98904166  0.85768377    -0.78200
C435        C  0.15733463  0.01227882  0.88031052     0.82500
N436        N  0.19599548  0.00666330  0.88067512    -0.78200
C437        C  0.21293546  0.98051643  0.85692674     0.82600
N438        N  0.19071262  0.95856864  0.83411402    -0.79900
O439        O  0.57153490  0.49348814  0.55585037    -0.88500
C440        C  0.56548545  0.56967802  0.63882831     0.87500
Mg441      Mg  0.60732165  0.50497493  0.50787383     1.58100
O442        O  0.48220915  0.56772810  0.58189574    -0.88200
O443        O  0.51042671  0.48328053  0.56662382    -0.75600
C444        C  0.56775266  0.68612678  0.46892524     0.92600
O445        O  0.63338703  0.55176093  0.58801257    -0.75400
O446        O  0.59428440  0.66432098  0.45610433    -0.82900
Mg447      Mg  0.59865532  0.50051327  0.61103881     1.58000
C448        C  0.43142409  0.66595290  0.53840053     0.92500
O449        O  0.56347976  0.44678234  0.63879866    -0.81100
H450        H  0.43999818  0.53728610  0.55798613    -0.06500
C451        C  0.55792868  0.64833290  0.56089621     0.87400
O452        O  0.55566814  0.52288786  0.47104829    -0.75700
O453        O  0.55458303  0.54011808  0.62259335    -0.88400
O454        O  0.43677478  0.65229851  0.57264198    -0.81200
C455        C  0.47976952  0.58685726  0.68662196     0.92600
C456        C  0.53137805  0.44501676  0.65683202     0.92500
Mg457      Mg  0.50395564  0.62143743  0.49936844     1.58000
O458        O  0.53756341  0.67254522  0.48304421    -0.81100
O459        O  0.46669140  0.57245752  0.52060831    -0.75400
O460        O  0.48953422  0.55590690  0.67119808    -0.81200
O461        O  0.65395528  0.46595776  0.59760572    -0.82900
O462        O  0.63221436  0.57041941  0.43351920    -0.81300
C463        C  0.46166868  0.55886660  0.55408325     0.86900
O464        O  0.54962692  0.58388759  0.48374346    -0.88400
O465        O  0.52773595  0.63092730  0.55465794    -0.88500
O466        O  0.58817769  0.64239369  0.54164265    -0.75600
Mg467      Mg  0.49732758  0.52162252  0.61836145     1.58000
O468        O  0.46730178  0.61471632  0.66611139    -0.82900
H469        H  0.54105343  0.45508004  0.52629171    -0.06700
O470        O  0.61752603  0.56122007  0.52731205    -0.88200
H471        H  0.65695245  0.59249825  0.55453817    -0.06500
H472        H  0.51686194  0.55730762  0.44471006    -0.06700
C473        C  0.63690554  0.56937938  0.55620350     0.86900
C474        C  0.54139263  0.47607457  0.54898104     0.87500
C475        C  0.54014519  0.55516866  0.46531520     0.87500
H476        H  0.55877586  0.66869218  0.58413530    -0.06600
O477        O  0.54828782  0.60139944  0.63462138    -0.75700
Mg478      Mg  0.60681355  0.60693699  0.48886383     1.58000
H479        H  0.59095053  0.56867169  0.65642487    -0.06700
C480        C  0.67520890  0.47788864  0.57031676     0.92500
O481        O  0.64421578  0.51257099  0.45718106    -0.82900
C482        C  0.64721613  0.53677036  0.43059845     0.92600
O483        O  0.50810305  0.47251713  0.65652816    -0.82900
Mg484      Mg  0.49367390  0.62382823  0.60433371     1.58200
O485        O  0.66088628  0.49136733  0.53988265    -0.81200
O486        O  0.45515510  0.66000374  0.51176833    -0.82900
C487        C  0.59294353  0.78709416  0.44964434     0.80100
N488        N  0.59298184  0.74841149  0.44781295    -0.78200
C489        C  0.57147781  0.72799389  0.47235347     0.82500
N490        N  0.54999647  0.74669778  0.49907760    -0.78200
C491        C  0.55092201  0.78529446  0.50247661     0.82600
N492        N  0.57154138  0.80538494  0.47653658    -0.79900
C493        C  0.47104409  0.61057683  0.79051426     0.80100
N494        N  0.46681289  0.61250586  0.75163511    -0.78200
C495        C  0.48690817  0.58883344  0.72872982     0.82500
N496        N  0.51114871  0.56275974  0.74522939    -0.78200
C497        C  0.51677812  0.56131158  0.78400955     0.83400
N498        N  0.49568022  0.58490966  0.80631712    -0.79900
C499        C  0.77507985  0.45034724  0.59233229     0.80100
N500        N  0.79473898  0.47635626  0.57092755    -0.78200
C501        C  0.77631900  0.50474027  0.55125458     0.82500
N502        N  0.73732921  0.50482917  0.55167490    -0.78200
C503        C  0.71730811  0.47901701  0.57303562     0.82600
N504        N  0.73636148  0.45190970  0.59272506    -0.79900
O505        O  0.36214907  0.93553157  0.59038446    -0.88500
C506        C  0.37434836  0.95478732  0.47369941     0.87500
Mg507      Mg  0.41197353  0.92648284  0.62293774     1.58100
O508        O  0.33689546  0.86485792  0.49591004    -0.88200
O509        O  0.31045841  0.90668280  0.56958462    -0.75600
C510        C  0.51932307  0.80473508  0.52279623     0.92600
O511        O  0.42927688  0.98040139  0.54624955    -0.75400
O512        O  0.52407620  0.82513601  0.55305836    -0.82900
Mg513      Mg  0.36372329  0.98461881  0.55445088     1.58000
C514        C  0.38479634  0.77325547  0.46044501     0.92500
O515        O  0.29559643  0.98539157  0.56580065    -0.81100
H516        H  0.30232612  0.83137749  0.52638817    -0.06500
C517        C  0.45231780  0.87741848  0.47670354     0.87400
O518        O  0.40166646  0.86113764  0.61890035    -0.75700
O519        O  0.35868073  0.94617435  0.50433217    -0.88400
O520        O  0.35911501  0.79658659  0.44866539    -0.81200
C521        C  0.29948211  0.90891013  0.40756095     0.92600
C522        C  0.27126536  0.97416335  0.54053978     0.92500
Mg523      Mg  0.42383819  0.81042571  0.51703283     1.58000
O524        O  0.48667302  0.80097329  0.50741724    -0.81100
O525        O  0.35798164  0.81477659  0.52734270    -0.75400
O526        O  0.29652575  0.92432467  0.44019739    -0.81200
O527        O  0.37903344  0.02703900  0.60552308    -0.82900
O528        O  0.48103064  0.86232643  0.63651940    -0.81300
C529        C  0.33100203  0.83696163  0.51677618     0.86900
O530        O  0.43228192  0.84080671  0.56805948    -0.88400
O531        O  0.42213949  0.86107847  0.48535486    -0.88500
O532        O  0.47789284  0.88537939  0.50190168    -0.75600
Mg533      Mg  0.30691620  0.91584721  0.50321942     1.58000
O534        O  0.32038710  0.87915299  0.40290022    -0.82900
H535        H  0.32681607  0.90813875  0.62570881    -0.06700
O536        O  0.44423908  0.92535853  0.57242524    -0.88200
H537        H  0.48343953  0.95965675  0.54937540    -0.06500
H538        H  0.40313577  0.80575529  0.60225444    -0.06700
C539        C  0.45377742  0.95513847  0.55593141     0.86900
C540        C  0.33306151  0.91660673  0.59667224     0.87500
C541        C  0.41220065  0.83448971  0.59648968     0.87500
H542        H  0.45712804  0.88503361  0.44709735    -0.06600
O543        O  0.38184474  0.92985724  0.44813778    -0.75700
Mg544      Mg  0.48181627  0.87551373  0.56801138     1.58000
H545        H  0.38173551  0.98420246  0.46844659    -0.06700
C546        C  0.40759347  0.02142274  0.62825684     0.92500
O547        O  0.46764434  0.92080227  0.65134648    -0.82900
C548        C  0.46957875  0.88678925  0.66121547     0.92600
O549        O  0.28148439  0.97245888  0.50645264    -0.82900
Mg550      Mg  0.37185083  0.86455546  0.44623743     1.58200
O551        O  0.42139987  0.98854843  0.63310965    -0.81200
O552        O  0.41862265  0.78407437  0.46040027    -0.82900
C553        C  0.33229330  0.69598819  0.50987327     0.80100
N554        N  0.36110597  0.67664939  0.52840555    -0.78200
C555        C  0.39782639  0.68973300  0.52616977     0.82500
N556        N  0.40494479  0.72037385  0.50305993    -0.78200
C557        C  0.37633276  0.73902438  0.48387330     0.82600
N558        N  0.34026757  0.72685621  0.48795571    -0.79900
C559        C  0.19448900  0.93037635  0.59771365     0.80100
N560        N  0.17335765  0.91120606  0.57059729    -0.78200
C561        C  0.18486887  0.91149991  0.53311449     0.82500
N562        N  0.21591484  0.93318016  0.52354442    -0.78200
C563        C  0.23626472  0.95291040  0.55063268     0.82600
N564        N  0.22548934  0.95083302  0.58734619    -0.79900
C565        C  0.42796410  0.83082552  0.74103452     0.80100
N566        N  0.40990337  0.85840676  0.76217777    -0.78200
C567        C  0.41001024  0.89523733  0.74949732     0.82500
N568        N  0.43051045  0.90374857  0.71737389    -0.78200
C569        C  0.44922535  0.87648454  0.69691246     0.82600
N570        N  0.44731095  0.84019096  0.70872275    -0.79900
C571        C  0.26274398  0.19079251  0.78467563     0.80100
N572        N  0.29475487  0.20345217  0.76716130    -0.78200
C573        C  0.31233179  0.18235738  0.73976235     0.82500
N574        N  0.29748959  0.14797264  0.73032709    -0.78200
C575        C  0.26580351  0.13430553  0.74793613     0.82600
N576        N  0.24843996  0.15608421  0.77501605    -0.79900
C577        C  0.16847833  0.99578614  0.67067163    -0.22600
C578        C  0.20270655  0.99221586  0.69152548     0.09400
C579        C  0.22292689  0.95755015  0.69052322     0.09800
C580        C  0.21099718  0.92909378  0.66479366    -0.17500
C581        C  0.18225611  0.93668950  0.63739029    -0.28000
C582        C  0.15797359  0.96819677  0.64339963     0.18100
C583        C  0.22044940  0.02714363  0.70725848     0.12100
C584        C  0.25868688  0.95191599  0.71422077    -0.12300
H585        H  0.22912456  0.90438460  0.66077334     0.12300
C586        C  0.12445689  0.97558023  0.61702889    -0.23100
H587        H  0.15247582  0.02215302  0.67240096     0.08000
C588        C  0.24438350  0.04955090  0.68402932     0.04300
C589        C  0.25857453  0.08396945  0.69837410    -0.20400
C590        C  0.24974716  0.09685920  0.73555724    -0.12700
C591        C  0.22662848  0.07347812  0.75926754     0.13000
C592        C  0.21218745  0.03901163  0.74462275    -0.23100
C593        C  0.25462734  0.03735394  0.64380109    -0.06200
H594        H  0.27620570  0.10127345  0.67985654     0.14600
C595        C  0.21751035  0.08382308  0.80014240    -0.16300
H596        H  0.19398238  0.02138402  0.76228766     0.08900
H597        H  0.13430236  0.97954764  0.58706506     0.06700
H598        H  0.10852849  0.00154666  0.62556124     0.07900
H599        H  0.10453138  0.95109543  0.61806832     0.07000
H600        H  0.25200397  0.95538956  0.74514495     0.01900
H601        H  0.28057256  0.97317491  0.70609210     0.02300
H602        H  0.27104657  0.92312478  0.70999297     0.05800
H603        H  0.27360351  0.05825362  0.62957860     0.04800
H604        H  0.22833972  0.03445580  0.62601097    -0.00900
H605        H  0.26978748  0.00963758  0.64462698     0.00500
H606        H  0.20224110  0.06055024  0.81511844     0.04200
H607        H  0.19877454  0.10914645  0.80082059     0.06100
H608        H  0.24426968  0.08962800  0.81625729     0.07000
C609        C  0.40656088  0.19201015  0.68475207    -0.22600
C610        C  0.41343129  0.23087353  0.68934611     0.09400
C611        C  0.38628513  0.25387075  0.70806346     0.09800
C612        C  0.35342596  0.23716061  0.72305583    -0.17500
C613        C  0.34677052  0.19780271  0.72015509    -0.28000
C614        C  0.37353992  0.17501259  0.69980359     0.18100
C615        C  0.45017204  0.24741744  0.67721127     0.12100
C616        C  0.39237904  0.29608234  0.71306121    -0.12300
H617        H  0.33302710  0.25518060  0.73762355     0.12300
C618        C  0.36852800  0.13282298  0.69428102    -0.23100
H619        H  0.42741056  0.17483627  0.66984202     0.08000
C620        C  0.48039506  0.25112603  0.70399788     0.04300
C621        C  0.50806320  0.27920837  0.69799794    -0.20400
C622        C  0.50260283  0.30646034  0.66895580    -0.12700
C623        C  0.47743625  0.29787894  0.63835824     0.13000
C624        C  0.45124622  0.26799822  0.64274068    -0.23100
C625        C  0.48051234  0.22927987  0.74128428    -0.06200
H626        H  0.52845105  0.28520951  0.72082583     0.14600
C627        C  0.47475445  0.32338501  0.60375132    -0.16300
H628        H  0.42857279  0.26416265  0.62171026     0.08900
H629        H  0.39297725  0.12006967  0.67880238     0.06700
H630        H  0.34254724  0.12719350  0.67675560     0.07900
H631        H  0.36650466  0.11845710  0.72256792     0.07000
H632        H  0.39492543  0.30989317  0.68453849     0.01900
H633        H  0.41884234  0.30127001  0.73001444     0.02300
H634        H  0.36831135  0.30978816  0.72840770     0.05800
H635        H  0.50628349  0.23560347  0.75896237     0.04800
H636        H  0.47994836  0.19829638  0.73551018    -0.00900
H637        H  0.45497923  0.23696185  0.75834777     0.00500
H638        H  0.45362286  0.31257925  0.58243662     0.04200
H639        H  0.50303843  0.32483328  0.58963491     0.06100
H640        H  0.46584273  0.35243440  0.61238860     0.07000
C641        C  0.18885187  0.23954659  0.84773822    -0.22600
C642        C  0.21228230  0.25876622  0.87426749     0.09400
C643        C  0.25225145  0.25763832  0.86962240     0.09800
C644        C  0.26785615  0.23539586  0.84003244    -0.17500
C645        C  0.24439531  0.21471134  0.81450720    -0.28000
C646        C  0.20426654  0.21839005  0.81739339     0.18100
C647        C  0.19390529  0.27486738  0.90908655     0.12100
C648        C  0.27831822  0.28025610  0.89545710    -0.12300
H649        H  0.29864161  0.23368327  0.83721047     0.12300
C650        C  0.17744413  0.20154206  0.78789653    -0.23100
H651        H  0.15811298  0.24039195  0.85134956     0.08000
C652        C  0.16437870  0.30226116  0.90644840     0.04300
C653        C  0.13743949  0.30481652  0.93615960    -0.20400
C654        C  0.13955953  0.28025851  0.96785238    -0.12700
C655        C  0.17311315  0.25859441  0.97362866     0.13000
C656        C  0.19976666  0.25575062  0.94396670    -0.23100
C657        C  0.16009154  0.32710544  0.87144320    -0.06200
H658        H  0.11198911  0.32195777  0.93195742     0.14600
C659        C  0.17829998  0.23473846  0.00924399    -0.16300
H660        H  0.22267533  0.23511091  0.94639869     0.08900
H661        H  0.14737456  0.21018868  0.79298088     0.06700
H662        H  0.17844487  0.17015303  0.78895886     0.07900
H663        H  0.18542982  0.21145331  0.75876970     0.07000
H664        H  0.27566391  0.27050244  0.92553756     0.01900
H665        H  0.27063288  0.31084731  0.89380720     0.02300
H666        H  0.30866057  0.27716063  0.88695885     0.05800
H667        H  0.13614586  0.34759490  0.87457343     0.04800
H668        H  0.15436525  0.30969169  0.84548343    -0.00900
H669        H  0.18676875  0.34355720  0.86721724     0.00500
H670        H  0.15525097  0.21327181  0.01151985     0.04200
H671        H  0.17765333  0.25339528  0.03495444     0.06100
H672        H  0.20595099  0.21925170  0.00904154     0.07000
C673        C  0.10228933  0.59628247  0.57450670    -0.22600
C674        C  0.13202307  0.61578874  0.59292098     0.09400
C675        C  0.15583093  0.63992519  0.57139736     0.09800
C676        C  0.14657792  0.64747947  0.53292155    -0.17500
C677        C  0.11364188  0.63205593  0.51576020    -0.28000
C678        C  0.09243184  0.60429207  0.53617136     0.18100
C679        C  0.13325149  0.61687944  0.63542249     0.12100
C680        C  0.18929970  0.65996788  0.58975483    -0.12300
H681        H  0.16325469  0.66811007  0.51716378     0.12300
C682        C  0.05743462  0.58539028  0.51941369    -0.23100
H683        H  0.08462152  0.57732282  0.59126178     0.08000
C684        C  0.10738663  0.64000132  0.65573125     0.04300
C685        C  0.11435691  0.64784786  0.69455466    -0.20400
C686        C  0.14713928  0.63394680  0.71363593    -0.12700
C687        C  0.17064263  0.60715576  0.69409864     0.13000
C688        C  0.16330968  0.59915880  0.65514407    -0.23100
C689        C  0.07359822  0.65839181  0.63594737    -0.06200
H690        H  0.09518607  0.66711062  0.70915989     0.14600
C691        C  0.20391155  0.58721217  0.71314610    -0.16300
H692        H  0.18240742  0.58071107  0.63935165     0.08900
H693        H  0.03529625  0.60704800  0.51264311     0.06700
H694        H  0.04464576  0.56476516  0.53973502     0.07900
H695        H  0.06516802  0.56949080  0.49302961     0.07000
H696        H  0.20998578  0.63875042  0.60108316     0.01900
H697        H  0.17938792  0.67841113  0.61359579     0.02300
H698        H  0.20446193  0.67796808  0.56873721     0.05800
H699        H  0.05693444  0.67652064  0.65589056     0.04800
H700        H  0.05413328  0.63616115  0.62449456    -0.00900
H701        H  0.08351027  0.67658878  0.61196710     0.00500
H702        H  0.19456870  0.57383477  0.74037454     0.04200
H703        H  0.21567887  0.56434688  0.69463556     0.06100
H704        H  0.22749793  0.60749640  0.71870110     0.07000
C705        C  0.13009375  0.87074687  0.78468132    -0.22600
C706        C  0.10496630  0.85447489  0.81115785     0.09400
C707        C  0.08807637  0.87771387  0.83941833     0.09800
C708        C  0.10016533  0.91563175  0.84318897    -0.17500
C709        C  0.12885829  0.93050503  0.81941328    -0.28000
C710        C  0.14139939  0.90869492  0.78785852     0.18100
C711        C  0.10284327  0.81241709  0.81223029     0.12100
C712        C  0.05831902  0.86233481  0.86628888    -0.12300
H713        H  0.08976089  0.93235889  0.86705699     0.12300
C714        C  0.16784639  0.92413565  0.75790325    -0.23100
H715        H  0.14290477  0.85313620  0.76269503     0.08000
C716        C  0.09119846  0.79108955  0.77987705     0.04300
C717        C  0.10208462  0.75277916  0.77722514    -0.20400
C718        C  0.12393366  0.73532224  0.80646986    -0.12700
C719        C  0.12939369  0.75501609  0.84151159     0.13000
C720        C  0.12010526  0.79369110  0.84343405    -0.23100
C721        C  0.06843226  0.80898648  0.74767922    -0.06200
H722        H  0.09609597  0.73753803  0.75080172     0.14600
C723        C  0.14500101  0.73639805  0.87724242    -0.16300
H724        H  0.12847721  0.80975483  0.86871393     0.08900
H725        H  0.15463103  0.92032832  0.72905390     0.06700
H726        H  0.19540438  0.90850439  0.75896922     0.07900
H727        H  0.17333311  0.95492008  0.76168783     0.07000
H728        H  0.07039529  0.83938074  0.88449221     0.01900
H729        H  0.03392226  0.85089958  0.84932384     0.02300
H730        H  0.04724259  0.88479761  0.88570192     0.05800
H731        H  0.06054999  0.78780761  0.72530480     0.04800
H732        H  0.08499298  0.83179144  0.73356108    -0.00900
H733        H  0.04167585  0.82124771  0.75932824     0.00500
H734        H  0.12442834  0.74039408  0.90102926     0.04200
H735        H  0.17244398  0.74995126  0.88556680     0.06100
H736        H  0.14909727  0.70534074  0.87376362     0.07000
C737        C  0.30051634  0.66771256  0.85148167    -0.22600
C738        C  0.32613877  0.66140103  0.82146206     0.09400
C739        C  0.31248259  0.65875943  0.78328905     0.09800
C740        C  0.27342395  0.66277179  0.77597694    -0.17500
C741        C  0.24732355  0.66858216  0.80583807    -0.28000
C742        C  0.26111567  0.67155778  0.84410350     0.18100
C743        C  0.36665853  0.65320242  0.82990603     0.12100
C744        C  0.33888066  0.65024106  0.75022907    -0.12300
H745        H  0.26319027  0.66106416  0.74660198     0.12300
C746        C  0.23461438  0.67763511  0.87729883    -0.23100
H747        H  0.31133594  0.66900510  0.88068713     0.08000
C748        C  0.39542905  0.67920172  0.81981861     0.04300
C749        C  0.43202350  0.66541582  0.81123842    -0.20400
C750        C  0.44015800  0.62646890  0.81400775    -0.12700
C751        C  0.41297311  0.60173312  0.83059168     0.13000
C752        C  0.37633403  0.61554921  0.83836773    -0.23100
C753        C  0.38663905  0.72089620  0.81604523    -0.06200
H754        H  0.45323875  0.68440312  0.79955564     0.14600
C755        C  0.42091697  0.55993481  0.83630303    -0.16300
H756        H  0.35408313  0.59600232  0.84695899     0.08900
H757        H  0.22130908  0.70605911  0.87473466     0.06700
H758        H  0.21222769  0.65530513  0.87742389     0.07900
H759        H  0.25000845  0.67661993  0.90530480     0.07000
H760        H  0.35376502  0.62277225  0.75524737     0.01900
H761        H  0.36039180  0.67314171  0.74729679     0.02300
H762        H  0.32312491  0.64807219  0.72249810     0.05800
H763        H  0.41275536  0.73740221  0.80981309     0.04800
H764        H  0.37482432  0.73163047  0.84350242    -0.00900
H765        H  0.36547643  0.72585949  0.79268232     0.00500
H766        H  0.39608987  0.54491654  0.84886662     0.04200
H767        H  0.44551676  0.55623649  0.85628102     0.06100
H768        H  0.42737276  0.54626446  0.80833011     0.07000
C769        C  0.65054935  0.08759917  0.60838907    -0.22600
C770        C  0.63013568  0.11895448  0.59412239     0.09400
C771        C  0.65002641  0.15184559  0.58299152     0.09800
C772        C  0.68911818  0.15455886  0.59130986    -0.17500
C773        C  0.70875433  0.12503312  0.61044301    -0.28000
C774        C  0.68990300  0.08985476  0.61569659     0.18100
C775        C  0.58831799  0.11956249  0.59945411     0.12100
C776        C  0.62967818  0.18468155  0.56393290    -0.12300
H777        H  0.70333113  0.18128797  0.58581826     0.12300
C778        C  0.71001578  0.05434533  0.62908190    -0.23100
H779        H  0.63533005  0.06191616  0.61610469     0.08000
C780        C  0.56348998  0.09441923  0.58007384     0.04300
C781        C  0.52598536  0.09008950  0.59342622    -0.20400
C782        C  0.51317225  0.11026135  0.62586043    -0.12700
C783        C  0.53672678  0.13898122  0.64174087     0.13000
C784        C  0.57422544  0.14261316  0.62896599    -0.23100
C785        C  0.57687019  0.07142741  0.54623152    -0.06200
H786        H  0.50795094  0.06851644  0.58053938     0.14600
C787        C  0.52369824  0.16559150  0.67285885    -0.16300
H788        H  0.59318675  0.16241490  0.64343903     0.08900
H789        H  0.70521739  0.03135314  0.60770538     0.06700
H790        H  0.69808665  0.04509278  0.65697962     0.07900
H791        H  0.74132618  0.05806656  0.63191728     0.07000
H792        H  0.60797685  0.19697247  0.58337750     0.01900
H793        H  0.61536690  0.17462530  0.53722830     0.02300
H794        H  0.64980840  0.20774115  0.55610584     0.05800
H795        H  0.55349643  0.05379339  0.53391185     0.04800
H796        H  0.60042273  0.05210145  0.55499855    -0.00900
H797        H  0.58719006  0.09086020  0.52344619     0.00500
H798        H  0.54021161  0.16020735  0.69967886     0.04200
H799        H  0.49286834  0.16268072  0.67877242     0.06100
H800        H  0.52850786  0.19540183  0.66363248     0.07000
C801        C  0.76766947  0.09462745  0.78960240    -0.22600
C802        C  0.79723881  0.11334286  0.80910894     0.09400
C803        C  0.82382729  0.13492765  0.78819976     0.09800
C804        C  0.81923481  0.13880409  0.74846854    -0.17500
C805        C  0.78808769  0.12251104  0.72860502    -0.28000
C806        C  0.76269363  0.09870768  0.74957889     0.18100
C807        C  0.79797126  0.11463338  0.85165366     0.12100
C808        C  0.85617701  0.15559478  0.80808903    -0.12300
H809        H  0.83958517  0.15620170  0.73318345     0.12300
C810        C  0.72998005  0.07783128  0.73085305    -0.23100
H811        H  0.74757234  0.07796285  0.80605511     0.08000
C812        C  0.77721276  0.14305204  0.87100746     0.04300
C813        C  0.78902549  0.15427185  0.90782160    -0.20400
C814        C  0.82101130  0.13778091  0.92584469    -0.12700
C815        C  0.83870343  0.10587145  0.90825879     0.13000
C816        C  0.82656155  0.09452664  0.87138712    -0.23100
C817        C  0.74481153  0.16383538  0.85141768    -0.06200
H818        H  0.77563846  0.17877537  0.92101231     0.14600
C819        C  0.87275897  0.08605648  0.92595437    -0.16300
H820        H  0.84215613  0.07253607  0.85621731     0.08900
H821        H  0.70921035  0.09828322  0.71829205     0.06700
H822        H  0.74130063  0.05856670  0.70842334     0.07900
H823        H  0.71417184  0.06002371  0.75171147     0.07000
H824        H  0.87522385  0.13485406  0.82275664     0.01900
H825        H  0.84461705  0.17583241  0.82957663     0.02300
H826        H  0.87375435  0.17204681  0.78755025     0.05800
H827        H  0.73213816  0.18586493  0.87031845     0.04800
H828        H  0.72200424  0.14332220  0.84347865    -0.00900
H829        H  0.75518467  0.17816614  0.82509200     0.00500
H830        H  0.88287041  0.06210242  0.90784768     0.04200
H831        H  0.86498875  0.07419289  0.95436995     0.06100
H832        H  0.89685010  0.10631809  0.92924656     0.07000
C833        C  0.81042038  0.27457685  0.58841517    -0.22600
C834        C  0.82331435  0.29671874  0.61937652     0.09400
C835        C  0.83473298  0.27853173  0.65369319     0.09800
C836        C  0.82844802  0.23935073  0.65786844    -0.17500
C837        C  0.81085664  0.21775238  0.62853105    -0.28000
C838        C  0.80483042  0.23521738  0.59214267     0.18100
C839        C  0.81768014  0.33858707  0.61746051     0.12100
C840        C  0.85267454  0.30060979  0.68627058    -0.12300
H841        H  0.83509686  0.22627134  0.68529237     0.12300
C842        C  0.79205104  0.21328210  0.55707969    -0.23100
H843        H  0.80216683  0.28856018  0.56186221     0.08000
C844        C  0.83688497  0.36201322  0.59101779     0.04300
C845        C  0.82493658  0.39999653  0.58616315    -0.20400
C846        C  0.79393220  0.41502640  0.60690092    -0.12700
C847        C  0.77715543  0.39211952  0.63589464     0.13000
C848        C  0.78883038  0.35427535  0.64013876    -0.23100
C849        C  0.86944636  0.34681250  0.56748938    -0.06200
H850        H  0.83823947  0.41708324  0.56412691     0.14600
C851        C  0.74628801  0.40570242  0.66264486    -0.16300
H852        H  0.77415699  0.33629795  0.66057132     0.08900
H853        H  0.81030562  0.18772083  0.55337338     0.06700
H854        H  0.79445180  0.23064847  0.53056524     0.07900
H855        H  0.76169437  0.20494751  0.55947620     0.07000
H856        H  0.83239051  0.32200253  0.69760479     0.01900
H857        H  0.87866521  0.31530339  0.67588747     0.02300
H858        H  0.86118829  0.28174100  0.71044950     0.05800
H859        H  0.88206055  0.36922177  0.54907455     0.04800
H860        H  0.85943803  0.32352871  0.54844590    -0.00900
H861        H  0.89221657  0.33581959  0.58690590     0.00500
H862        H  0.71954963  0.38963885  0.65697757     0.04200
H863        H  0.74012400  0.43636425  0.66017532     0.06100
H864        H  0.75537615  0.40056987  0.69285292     0.07000
C865        C  0.68262283  0.14865947  0.00930933    -0.22600
C866        C  0.66381234  0.12633401  0.03654253     0.09400
C867        C  0.63222022  0.10411951  0.02487762     0.09800
C868        C  0.61592698  0.11028573  0.98841034    -0.17500
C869        C  0.63015267  0.13901015  0.96453120    -0.28000
C870        C  0.66610566  0.15511396  0.97319669     0.18100
C871        C  0.66928795  0.13697876  0.07734349     0.12100
C872        C  0.61393218  0.07653159  0.05216257    -0.12300
H873        H  0.58880239  0.09698974  0.98133292     0.12300
C874        C  0.68522702  0.18251931  0.94642523    -0.23100
H875        H  0.70752572  0.16508886  0.01784748     0.08000
C876        C  0.70340846  0.12999374  0.09767058     0.04300
C877        C  0.70959086  0.14824555  0.13309660    -0.20400
C878        C  0.68259843  0.17391117  0.14850596    -0.12700
C879        C  0.64712776  0.17866911  0.12887326     0.13000
C880        C  0.64123961  0.16023863  0.09364644    -0.23100
C881        C  0.73331717  0.10363305  0.08179388    -0.06200
H882        H  0.73646249  0.14344917  0.14791080     0.14600
C883        C  0.61508685  0.20308504  0.14394364    -0.16300
H884        H  0.61510366  0.16550410  0.07757878     0.08900
H885        H  0.71428635  0.17193182  0.94028715     0.06700
H886        H  0.68726625  0.21100681  0.96006004     0.07900
H887        H  0.66968837  0.18520061  0.91863872     0.07000
H888        H  0.60284363  0.09167439  0.07772478     0.01900
H889        H  0.63541909  0.05517837  0.06158701     0.02300
H890        H  0.58971696  0.06120886  0.03836496     0.05800
H891        H  0.75803856  0.10058855  0.10175569     0.04800
H892        H  0.74408500  0.11469098  0.05408137    -0.00900
H893        H  0.72070050  0.07503941  0.07709068     0.00500
H894        H  0.62348093  0.23348373  0.14394132     0.04200
H895        H  0.60743425  0.19372196  0.17331128     0.06100
H896        H  0.58890449  0.20080998  0.12585171     0.07000
C897        C  0.89482502  0.14245652  0.31780396    -0.22600
C898        C  0.89005623  0.17356475  0.29307874     0.09400
C899        C  0.92176231  0.18759762  0.27283019     0.09800
C900        C  0.95555964  0.16615991  0.27244322    -0.17500
C901        C  0.95726930  0.13040982  0.29040755    -0.28000
C902        C  0.92822879  0.12033421  0.31647365     0.18100
C903        C  0.85089575  0.18240492  0.27945527     0.12100
C904        C  0.91837331  0.22262772  0.24812380    -0.12300
H905        H  0.97829217  0.17433336  0.25316934     0.12300
C906        C  0.93014826  0.08387129  0.33906057    -0.23100
H907        H  0.87052205  0.13240718  0.33397970     0.08000
C908        C  0.83497166  0.16143059  0.24872887     0.04300
C909        C  0.79843575  0.17050526  0.23515379    -0.20400
C910        C  0.77695944  0.20042885  0.25103776    -0.12700
C911        C  0.79299854  0.22115919  0.28256222     0.13000
C912        C  0.82981638  0.21170966  0.29626062    -0.23100
C913        C  0.85680218  0.12957056  0.22971483    -0.06200
H914        H  0.78703203  0.15419751  0.21130343     0.14600
C915        C  0.77217479  0.25317494  0.30226387    -0.16300
H916        H  0.84246768  0.22747897  0.31989378     0.08900
H917        H  0.93067362  0.05909637  0.31929630     0.06700
H918        H  0.90510306  0.08062650  0.35816638     0.07900
H919        H  0.95632427  0.08373485  0.35727495     0.07000
H920        H  0.91080004  0.24742689  0.26630412     0.01900
H921        H  0.89589657  0.21856182  0.22582593     0.02300
H922        H  0.94553205  0.22904631  0.23323922     0.05800
H923        H  0.84014222  0.11620202  0.20602661     0.04800
H924        H  0.86366994  0.10711483  0.25106751    -0.00900
H925        H  0.88371654  0.14065835  0.21738764     0.00500
H926        H  0.74447406  0.24282557  0.31347248     0.04200
H927        H  0.78873093  0.26466991  0.32701863     0.06100
H928        H  0.76748008  0.27703446  0.28192004     0.07000
C929        C  0.61238387  0.32589425  0.24817258    -0.22600
C930        C  0.63635844  0.35733715  0.25364782     0.09400
C931        C  0.67609547  0.35349784  0.24755761     0.09800
C932        C  0.69077068  0.31832485  0.23625539    -0.17500
C933        C  0.66721183  0.28638490  0.23222655    -0.28000
C934        C  0.62734463  0.29017816  0.23806612     0.18100
C935        C  0.62185461  0.39115892  0.27408408     0.12100
C936        C  0.70363784  0.38565207  0.25555998    -0.12300
H937        H  0.72126163  0.31541198  0.23171386     0.12300
C938        C  0.60013854  0.25703953  0.23690588    -0.23100
H939        H  0.58217375  0.32866406  0.25429724     0.08000
C940        C  0.62230069  0.42745367  0.25692038     0.04300
C941        C  0.62915503  0.45943528  0.28022192    -0.20400
C942        C  0.63341747  0.45522473  0.32008800    -0.12700
C943        C  0.62495573  0.41992515  0.33738952     0.13000
C944        C  0.61916026  0.38811239  0.31402463    -0.23100
C945        C  0.61763061  0.43170804  0.21413762    -0.06200
H946        H  0.63471680  0.48681759  0.26709495     0.14600
C947        C  0.62671238  0.41489830  0.38042815    -0.16300
H948        H  0.61763868  0.36012185  0.32703647     0.08900
H949        H  0.57914328  0.26111663  0.21318564     0.06700
H950        H  0.58452556  0.25544234  0.26450663     0.07900
H951        H  0.61458450  0.22935749  0.23304203     0.07000
H952        H  0.70122323  0.39493699  0.28593923     0.01900
H953        H  0.69750142  0.41006296  0.23636628     0.02300
H954        H  0.73374773  0.37699512  0.25074236     0.05800
H955        H  0.61712864  0.46206941  0.20557566     0.04800
H956        H  0.59006119  0.41888960  0.20500309    -0.00900
H957        H  0.64112342  0.41716091  0.19878126     0.00500
H958        H  0.61931854  0.38542905  0.38905508     0.04200
H959        H  0.60613407  0.43457076  0.39422425     0.06100
H960        H  0.65591712  0.42104433  0.39139630     0.07000
C961        C  0.25746449  0.33880571  0.13078750    -0.22600
C962        C  0.29291355  0.32880017  0.11538278     0.09400
C963        C  0.32245888  0.31635427  0.14013121     0.09800
C964        C  0.31464699  0.31042603  0.17903398    -0.17500
C965        C  0.27766849  0.31539853  0.19380381    -0.28000
C966        C  0.24922115  0.33211728  0.16970906     0.18100
C967        C  0.29625630  0.32310183  0.07333959     0.12100
C968        C  0.36153139  0.30651350  0.12507004    -0.12300
H969        H  0.33706413  0.29919610  0.19740679     0.12300
C970        C  0.20951090  0.34099851  0.18351225    -0.23100
H971        H  0.23518719  0.34885547  0.11153452     0.08000
C972        C  0.28057739  0.29022607  0.05621753     0.04300
C973        C  0.29216426  0.27963362  0.01937821    -0.20400
C974        C  0.32104406  0.29959086  0.00009652    -0.12700
C975        C  0.33384960  0.33478349  0.01567687     0.13000
C976        C  0.32079002  0.34625738  0.05205357    -0.23100
C977        C  0.25429477  0.26428963  0.07815214    -0.06200
H978        H  0.28114148  0.25347799  0.00715285     0.14600
C979        C  0.36308887  0.35923593  0.99598114    -0.16300
H980        H  0.33226318  0.37168088  0.06537514     0.08900
H981        H  0.19490322  0.31450866  0.19249614     0.06700
H982        H  0.21106286  0.36138995  0.20782060     0.07900
H983        H  0.19166942  0.35427722  0.16064045     0.07000
H984        H  0.37472529  0.33209746  0.11211869     0.01900
H985        H  0.35919861  0.28378103  0.10301990     0.02300
H986        H  0.38091811  0.29617477  0.14822602     0.05800
H987        H  0.24672529  0.23851306  0.06140504     0.04800
H988        H  0.22750142  0.27955913  0.08522802    -0.00900
H989        H  0.26846182  0.25465643  0.10510145     0.00500
H990        H  0.36879438  0.38588265  0.01216994     0.04200
H991        H  0.35252170  0.36736334  0.96696710     0.06100
H992        H  0.39060535  0.34371361  0.99371492     0.07000
C993        C  0.33112633  0.14985176  0.26269145    -0.22600
C994        C  0.32075279  0.13285831  0.29739250     0.09400
C995        C  0.30540181  0.15558421  0.32695870     0.09800
C996        C  0.29669098  0.19375933  0.31942748    -0.17500
C997        C  0.30195466  0.20963785  0.28277921    -0.28000
C998        C  0.32143542  0.18778904  0.25455776     0.18100
C999        C  0.31778534  0.09082319  0.29912649     0.12100
C1000       C  0.29569567  0.13907253  0.36563494    -0.12300
H1001       H  0.28326021  0.21056417  0.34166802     0.12300
C1002       C  0.32982692  0.20261947  0.21486877    -0.23100
H1003       H  0.34362606  0.13222211  0.24051599     0.08000
C1004       C  0.28831698  0.07204126  0.27868338     0.04300
C1005       C  0.28004712  0.03413458  0.28732069    -0.20400
C1006       C  0.29897790  0.01501932  0.31732782    -0.12700
C1007       C  0.33081912  0.03273866  0.33544587     0.13000
C1008       C  0.34014917  0.07036857  0.32555029    -0.23100
C1009       C  0.26324885  0.09282387  0.25010951    -0.06200
H1010       H  0.25616328  0.02044796  0.27295953     0.14600
C1011       C  0.35325461  0.01373476  0.36722634    -0.16300
H1012       H  0.36303915  0.08490985  0.34065008     0.08900
H1013       H  0.30278118  0.20972801  0.19961308     0.06700
H1014       H  0.34502733  0.18126525  0.19708161     0.07900
H1015       H  0.34844586  0.22806242  0.21691257     0.07000
H1016       H  0.32201415  0.12821114  0.37983316     0.01900
H1017       H  0.27492140  0.11547819  0.36212713     0.02300
H1018       H  0.28280462  0.16064507  0.38493671     0.05800
H1019       H  0.23971084  0.07466037  0.23911376     0.04800
H1020       H  0.28043532  0.10208000  0.22517976    -0.00900
H1021       H  0.25001359  0.11801442  0.26393911     0.00500
H1022       H  0.37691824  0.03199700  0.37792259     0.04200
H1023       H  0.36606068  0.98690453  0.35648281     0.06100
H1024       H  0.33435542  0.00767080  0.39193187     0.07000
C1025       C  0.04919309  0.32303620  0.34327852    -0.22600
C1026       C  0.06899224  0.29561726  0.32211420     0.09400
C1027       C  0.04886529  0.27240572  0.29583590     0.09800
C1028       C  0.01074871  0.28108570  0.28702306    -0.17500
C1029       C  0.99305189  0.31335891  0.30270086    -0.28000
C1030       C  0.01132640  0.33258251  0.33369623     0.18100
C1031       C  0.11115055  0.29786625  0.32030452     0.12100
C1032       C  0.06862417  0.24099182  0.27418022    -0.12300
H1033       H  0.99650761  0.26572806  0.26409382     0.12300
C1034       C  0.99318555  0.36579591  0.35404464    -0.23100
H1035       H  0.06477726  0.34001364  0.36410334     0.08000
C1036       C  0.12861939  0.32576443  0.29726683     0.04300
C1037       C  0.16741638  0.32235514  0.28855753    -0.20400
C1038       C  0.18936406  0.29128862  0.30153454    -0.12700
C1039       C  0.17244006  0.26550004  0.32810362     0.13000
C1040       C  0.13345001  0.26919164  0.33685987    -0.23100
C1041       C  0.10587039  0.35808163  0.27999550    -0.06200
H1042       H  0.18004267  0.34328131  0.26974868     0.14600
C1043       C  0.19415967  0.23328202  0.34675868    -0.16300
H1044       H  0.11971294  0.24837796  0.35507477     0.08900
H1045       H  0.98897837  0.38981364  0.33379217     0.06700
H1046       H  0.01134825  0.37631811  0.37809566     0.07900
H1047       H  0.96536030  0.35704272  0.36627163     0.07000
H1048       H  0.08015272  0.21973023  0.29478550     0.01900
H1049       H  0.09242217  0.25283536  0.25703612     0.02300
H1050       H  0.04877584  0.22608103  0.25420689     0.05800
H1051       H  0.12382481  0.37675326  0.26184727     0.04800
H1052       H  0.09360484  0.37584871  0.30320207    -0.00900
H1053       H  0.08239978  0.34669511  0.26170495     0.00500
H1054       H  0.21956489  0.24457684  0.36225011     0.04200
H1055       H  0.17652778  0.21794316  0.36812404     0.06100
H1056       H  0.20284582  0.21211095  0.32484449     0.07000
C1057       C  0.62481154  0.62321294  0.09367051    -0.22600
C1058       C  0.60968415  0.60449588  0.12577038     0.09400
C1059       C  0.59965389  0.62579385  0.15838473     0.09800
C1060       C  0.60969342  0.66429586  0.16017437    -0.17500
C1061       C  0.62957249  0.68207029  0.12996478    -0.28000
C1062       C  0.63371968  0.66210869  0.09492948     0.18100
C1063       C  0.61248193  0.56252080  0.12730662     0.12100
C1064       C  0.57961646  0.60758968  0.19183483    -0.12300
H1065       H  0.60442930  0.67953553  0.18661302     0.12300
C1066       C  0.64703237  0.68065125  0.05843724    -0.23100
H1067       H  0.63152905  0.60701835  0.06811253     0.08000
C1068       C  0.59238179  0.53864309  0.10164609     0.04300
C1069       C  0.60506625  0.50105608  0.09642775    -0.20400
C1070       C  0.63769630  0.48752179  0.11599834    -0.12700
C1071       C  0.65309371  0.50946550  0.14650067     0.13000
C1072       C  0.64094133  0.54699122  0.15109909    -0.23100
C1073       C  0.55883014  0.55332388  0.07872747    -0.06200
H1074       H  0.59226916  0.48402306  0.07376317     0.14600
C1075       C  0.68468134  0.49513840  0.17244229    -0.16300
H1076       H  0.65582408  0.56508048  0.17156901     0.08900
H1077       H  0.64993662  0.71189595  0.06110953     0.06700
H1078       H  0.62564915  0.67542186  0.03529529     0.07900
H1079       H  0.67472646  0.66816152  0.04961598     0.07000
H1080       H  0.59776411  0.58517412  0.20498401     0.01900
H1081       H  0.55239796  0.59470286  0.18172042     0.02300
H1082       H  0.57283185  0.62866201  0.21456627     0.05800
H1083       H  0.54586550  0.53065082  0.06063770     0.04800
H1084       H  0.56785811  0.57672239  0.05951382    -0.00900
H1085       H  0.53663597  0.56407684  0.09860234     0.00500
H1086       H  0.71124029  0.51146455  0.16712272     0.04200
H1087       H  0.69047162  0.46441461  0.16811291     0.06100
H1088       H  0.67645372  0.49905755  0.20292912     0.07000
C1089       C  0.80826943  0.74549771  0.09871879    -0.22600
C1090       C  0.82298841  0.78125267  0.10881771     0.09400
C1091       C  0.79770714  0.80982541  0.12172362     0.09800
C1092       C  0.75906663  0.80111980  0.12670333    -0.17500
C1093       C  0.74476298  0.76430926  0.12035495    -0.28000
C1094       C  0.76952392  0.73645954  0.10450671     0.18100
C1095       C  0.86507240  0.78688732  0.11180455     0.12100
C1096       C  0.81167675  0.84895698  0.13272431    -0.12300
H1097       H  0.74017080  0.82297340  0.13769687     0.12300
C1098       C  0.75623133  0.69673686  0.09544084    -0.23100
H1099       H  0.82774649  0.72385656  0.08832268     0.08000
C1100       C  0.88610663  0.76980189  0.14199879     0.04300
C1101       C  0.92250677  0.78371202  0.15118987    -0.20400
C1102       C  0.93746100  0.81600875  0.13299127    -0.12700
C1103       C  0.91814839  0.83054395  0.10013265     0.13000
C1104       C  0.88259077  0.81495823  0.08939042    -0.23100
C1105       C  0.86888453  0.73942291  0.16700875    -0.06200
H1106       H  0.93764481  0.77188501  0.17568853     0.14600
C1107       C  0.93275019  0.86446793  0.07833515    -0.16300
H1108       H  0.86658463  0.82737472  0.06569430     0.08900
H1109       H  0.77970231  0.67880180  0.08403575     0.06700
H1110       H  0.73340612  0.69783207  0.07320867     0.07900
H1111       H  0.74541685  0.68282188  0.12180675     0.07000
H1112       H  0.82349497  0.86354715  0.10722433     0.01900
H1113       H  0.83407439  0.84673494  0.15538008     0.02300
H1114       H  0.78829514  0.86705172  0.14406313     0.05800
H1115       H  0.88827449  0.73130730  0.19099305     0.04800
H1116       H  0.86299619  0.71356629  0.14969887    -0.00900
H1117       H  0.84192471  0.74992183  0.17985075     0.00500
H1118       H  0.91391534  0.87173312  0.05356696     0.04200
H1119       H  0.96161965  0.85825367  0.06695551     0.06100
H1120       H  0.93393240  0.88972047  0.09745879     0.07000
C1121       C  0.65217913  0.83051160  0.27311810    -0.22600
C1122       C  0.63774028  0.80428734  0.29953646     0.09400
C1123       C  0.62994405  0.76666790  0.28785050     0.09800
C1124       C  0.63692177  0.75599947  0.24994771    -0.17500
C1125       C  0.65204167  0.78175608  0.22328816    -0.28000
C1126       C  0.65978626  0.81959907  0.23499789     0.18100
C1127       C  0.63093144  0.81550086  0.33976259     0.12100
C1128       C  0.61469155  0.73748240  0.31556942    -0.12300
H1129       H  0.63149558  0.72683835  0.24143751     0.12300
C1130       C  0.67534422  0.84865296  0.20751820    -0.23100
H1131       H  0.65792883  0.85934423  0.28251565     0.08000
C1132       C  0.65806224  0.80674195  0.36857503     0.04300
C1133       C  0.64600123  0.80312831  0.40671309    -0.20400
C1134       C  0.60743267  0.80765796  0.41607963    -0.12700
C1135       C  0.58145447  0.82153145  0.38805245     0.13000
C1136       C  0.59371806  0.82564416  0.35004701    -0.23100
C1137       C  0.69886312  0.79810859  0.35842491    -0.06200
H1138       H  0.66588134  0.79326786  0.42855633     0.14600
C1139       C  0.53994741  0.82820287  0.39721082    -0.16300
H1140       H  0.57319874  0.83266260  0.32765285     0.08900
H1141       H  0.70459889  0.84055536  0.19866117     0.06700
H1142       H  0.65645726  0.85070445  0.18182412     0.07900
H1143       H  0.67711012  0.87728619  0.22089497     0.07000
H1144       H  0.58679618  0.74706550  0.32703280     0.01900
H1145       H  0.63513963  0.73346555  0.33976923     0.02300
H1146       H  0.61030119  0.70941381  0.30158016     0.05800
H1147       H  0.71652925  0.79294161  0.38444814     0.04800
H1148       H  0.71129553  0.82265868  0.34291777    -0.00900
H1149       H  0.70023746  0.77247583  0.33985062     0.00500
H1150       H  0.52362910  0.83841382  0.37172902     0.04200
H1151       H  0.53755452  0.85006737  0.42008649     0.06100
H1152       H  0.52658085  0.80136970  0.40711979     0.07000
C1153       C  0.24319018  0.85689527  0.18088485    -0.22600
C1154       C  0.26570660  0.88160866  0.20320729     0.09400
C1155       C  0.26629888  0.87736434  0.24346873     0.09800
C1156       C  0.24183995  0.85078639  0.26059680    -0.17500
C1157       C  0.21755155  0.82741914  0.23837377    -0.28000
C1158       C  0.22000447  0.82915373  0.19778862     0.18100
C1159       C  0.28256407  0.91518884  0.18383254     0.12100
C1160       C  0.29303885  0.90042763  0.26832323    -0.12300
H1161       H  0.24115667  0.84895002  0.29160280     0.12300
C1162       C  0.19935526  0.80148259  0.17185102    -0.23100
H1163       H  0.24267276  0.86024080  0.14995241     0.08000
C1164       C  0.30728178  0.91148977  0.15210114     0.04300
C1165       C  0.30966610  0.94147486  0.12549680    -0.20400
C1166       C  0.28745566  0.97438093  0.13010834    -0.12700
C1167       C  0.26936490  0.98076818  0.16557003     0.13000
C1168       C  0.26639810  0.95081298  0.19179655    -0.23100
C1169       C  0.32938762  0.87536510  0.14524359    -0.06200
H1170       H  0.32427108  0.93687617  0.09854762     0.14600
C1171       C  0.24924357  0.01779501  0.17354515    -0.16300
H1172       H  0.24782882  0.95404614  0.21633511     0.08900
H1173       H  0.20618741  0.77187982  0.18063378     0.06700
H1174       H  0.20795482  0.80480776  0.14139590     0.07900
H1175       H  0.16815712  0.80626287  0.17297771     0.07000
H1176       H  0.28617103  0.93111749  0.26637342     0.01900
H1177       H  0.32290002  0.89579430  0.25886279     0.02300
H1178       H  0.29118685  0.89201895  0.29898449     0.05800
H1179       H  0.34813603  0.87784032  0.11977956     0.04800
H1180       H  0.30981906  0.85109415  0.14025075    -0.00900
H1181       H  0.34770419  0.86920655  0.17067465     0.00500
H1182       H  0.22659537  0.02324121  0.15175599     0.04200
H1183       H  0.27025799  0.04138988  0.17291516     0.06100
H1184       H  0.23551586  0.01756448  0.20215925     0.07000
C1185       C  0.00441847  0.67969103  0.15333947    -0.22600
C1186       C  0.99986474  0.70112097  0.18703539     0.09400
C1187       C  0.96579708  0.69770081  0.20804524     0.09800
C1188       C  0.93971469  0.66901750  0.19802586    -0.17500
C1189       C  0.94886661  0.64190519  0.16982704    -0.28000
C1190       C  0.97909989  0.64983356  0.14453457     0.18100
C1191       C  0.03413204  0.71851998  0.20511493     0.12100
C1192       C  0.95930395  0.72108833  0.24374644    -0.12300
H1193       H  0.91603488  0.66331757  0.21707448     0.12300
C1194       C  0.98732447  0.62383727  0.11124514    -0.23100
H1195       H  0.03022392  0.68312889  0.13669997     0.08000
C1196       C  0.05805396  0.69638543  0.22914970     0.04300
C1197       C  0.08953272  0.71331931  0.24733931    -0.20400
C1198       C  0.09827460  0.75186430  0.24187527    -0.12700
C1199       C  0.07411399  0.77412460  0.21775955     0.13000
C1200       C  0.04213096  0.75714501  0.19986364    -0.23100
C1201       C  0.05029999  0.65471192  0.23577824    -0.06200
H1202       H  0.10787524  0.69602743  0.26547626     0.14600
C1203       C  0.08086089  0.81590777  0.21172671    -0.16300
H1204       H  0.02325213  0.77397482  0.18183675     0.08900
H1205       H  0.99394696  0.59474980  0.12173047     0.06700
H1206       H  0.01204755  0.63397680  0.09430011     0.07900
H1207       H  0.96197546  0.62268294  0.09191058     0.07000
H1208       H  0.96026763  0.75181495  0.23665472     0.01900
H1209       H  0.98182896  0.71480658  0.26546429     0.02300
H1210       H  0.93115522  0.71490050  0.25681184     0.05800
H1211       H  0.07177761  0.64167844  0.25540435     0.04800
H1212       H  0.05118314  0.63911865  0.20806082    -0.00900
H1213       H  0.02173080  0.65101919  0.24884758     0.00500
H1214       H  0.05757084  0.82916038  0.19457452     0.04200
H1215       H  0.10779772  0.82050625  0.19602402     0.06100
H1216       H  0.08236702  0.83044476  0.23987451     0.07000
C1217       C  0.23148703  0.74363602  0.40706490    -0.22600
C1218       C  0.21517575  0.70911250  0.41848852     0.09400
C1219       C  0.18487528  0.69373921  0.39652403     0.09800
C1220       C  0.17279648  0.71257006  0.36290383    -0.17500
C1221       C  0.19007696  0.74658854  0.35049303    -0.28000
C1222       C  0.21953596  0.76267702  0.37372557     0.18100
C1223       C  0.23295866  0.69012773  0.45242015     0.12100
C1224       C  0.16452483  0.65788105  0.40773661    -0.12300
H1225       H  0.14996860  0.69998112  0.34593693     0.12300
C1226       C  0.23900436  0.79975333  0.36426983    -0.23100
H1227       H  0.25474829  0.75537486  0.42411614     0.08000
C1228       C  0.25974237  0.66031783  0.44761924     0.04300
C1229       C  0.28852709  0.65497684  0.47555515    -0.20400
C1230       C  0.29321956  0.68121786  0.50557940    -0.12700
C1231       C  0.26297542  0.70657806  0.51362643     0.13000
C1232       C  0.23268498  0.71017811  0.48729646    -0.23100
C1233       C  0.26123079  0.63745485  0.41101188    -0.06200
H1234       H  0.31162643  0.63526795  0.46961677     0.14600
C1235       C  0.26578682  0.73485483  0.54606305    -0.16300
H1236       H  0.21194690  0.73278208  0.49132207     0.08900
H1237       H  0.25872910  0.80908770  0.38758910     0.06700
H1238       H  0.21745866  0.82257948  0.36022409     0.07900
H1239       H  0.25647398  0.79644313  0.33804184     0.07000
H1240       H  0.17460965  0.64641704  0.43570689     0.01900
H1241       H  0.16866012  0.63591102  0.38522816     0.02300
H1242       H  0.13357026  0.66388636  0.40999574     0.05800
H1243       H  0.28547965  0.61705222  0.41117753     0.04800
H1244       H  0.26475583  0.65661890  0.38596767    -0.00900
H1245       H  0.23463952  0.62076079  0.40749267     0.00500
H1246       H  0.26848810  0.76400052  0.53415536     0.04200
H1247       H  0.23974778  0.73365125  0.56393480     0.06100
H1248       H  0.29081721  0.72909092  0.56497169     0.07000
C1249       C  0.67202210  0.74241581  0.52598053    -0.22600
C1250       C  0.70440907  0.72635053  0.50904908     0.09400
C1251       C  0.71814352  0.69088344  0.52230057     0.09800
C1252       C  0.69895912  0.67229762  0.55184425    -0.17500
C1253       C  0.66833899  0.68941081  0.57130928    -0.28000
C1254       C  0.65400123  0.72475963  0.55733297     0.18100
C1255       C  0.72770191  0.74909074  0.48219966     0.12100
C1256       C  0.75506084  0.67390878  0.50782738    -0.12300
H1257       H  0.70981727  0.64502431  0.56139126     0.12300
C1258       C  0.62129280  0.74532442  0.57601519    -0.23100
H1259       H  0.66212968  0.76992069  0.51591495     0.08000
C1260       C  0.73306138  0.73735919  0.44387442     0.04300
C1261       C  0.76707715  0.74734810  0.42525722    -0.20400
C1262       C  0.79548900  0.76831164  0.44453620    -0.12700
C1263       C  0.78629616  0.78616216  0.47962193     0.13000
C1264       C  0.75239216  0.77624620  0.49824216    -0.23100
C1265       C  0.70441041  0.71198575  0.42391379    -0.06200
H1266       H  0.77379702  0.73413325  0.39797452     0.14600
C1267       C  0.81419475  0.81161880  0.50033575    -0.16300
H1268       H  0.74765419  0.78616469  0.52732751     0.08900
H1269       H  0.59517183  0.72761403  0.57436907     0.06700
H1270       H  0.62858053  0.75193269  0.60638055     0.07900
H1271       H  0.61474583  0.77269243  0.56147248     0.07000
H1272       H  0.77888386  0.69417940  0.51277568     0.01900
H1273       H  0.75298967  0.66737733  0.47676741     0.02300
H1274       H  0.76245968  0.64702040  0.52288777     0.05800
H1275       H  0.71311227  0.70546297  0.39400971     0.04800
H1276       H  0.67618653  0.72627848  0.42275076    -0.00900
H1277       H  0.70110039  0.68474029  0.43949109     0.00500
H1278       H  0.80034923  0.83935620  0.50650312     0.04200
H1279       H  0.84002151  0.81722277  0.48297024     0.06100
H1280       H  0.82314497  0.79823325  0.52786007     0.07000
C1281       C  0.76809107  0.58851476  0.69639120    -0.22600
C1282       C  0.75453308  0.56260820  0.72335949     0.09400
C1283       C  0.71474037  0.55815659  0.72829858     0.09800
C1284       C  0.68936273  0.58076562  0.70696851    -0.17500
C1285       C  0.70258492  0.60762347  0.68045207    -0.28000
C1286       C  0.74272864  0.61098647  0.67456239     0.18100
C1287       C  0.78161418  0.54119738  0.74800543     0.12100
C1288       C  0.69898493  0.52979043  0.75654075    -0.12300
H1289       H  0.65888441  0.57753452  0.71123290     0.12300
C1290       C  0.75956183  0.63882663  0.64648190    -0.23100
H1291       H  0.79869102  0.59144987  0.69281451     0.08000
C1292       C  0.79084709  0.50315791  0.73942192     0.04300
C1293       C  0.79755407  0.47763831  0.76981871    -0.20400
C1294       C  0.79613076  0.49041660  0.80796657    -0.12700
C1295       C  0.79647315  0.52998124  0.81520154     0.13000
C1296       C  0.78852543  0.55511871  0.78504770    -0.23100
C1297       C  0.79033021  0.48935234  0.69858659    -0.06200
H1298       H  0.79846335  0.44736352  0.76403336     0.14600
C1299       C  0.79924874  0.54570964  0.85537108    -0.16300
H1300       H  0.78297021  0.58480155  0.79137043     0.08900
H1301       H  0.75123683  0.63088127  0.61674658     0.06700
H1302       H  0.79127771  0.63891753  0.64771272     0.07900
H1303       H  0.74965374  0.66808517  0.65311232     0.07000
H1304       H  0.70902300  0.53675300  0.78603455     0.01900
H1305       H  0.70864024  0.50070148  0.74887833     0.02300
H1306       H  0.66725752  0.52984280  0.75664330     0.05800
H1307       H  0.79842275  0.45889879  0.69674614     0.04800
H1308       H  0.81118642  0.50592645  0.68156911    -0.00900
H1309       H  0.76144987  0.49334485  0.68588219     0.00500
H1310       H  0.82287694  0.56668670  0.85696445     0.04200
H1311       H  0.80521926  0.52312232  0.87686109     0.06100
H1312       H  0.77205104  0.56004593  0.86297220     0.07000
C1313       C  0.53395515  0.68036617  0.73496094    -0.22600
C1314       C  0.51500959  0.71163068  0.71874456     0.09400
C1315       C  0.52903105  0.72771726  0.68450115     0.09800
C1316       C  0.56072100  0.71139267  0.66661166    -0.17500
C1317       C  0.58029446  0.68000398  0.68242805    -0.28000
C1318       C  0.56639875  0.66422856  0.71738378     0.18100
C1319       C  0.48309631  0.73034594  0.73937004     0.12100
C1320       C  0.51192100  0.76353482  0.66756486    -0.12300
H1321       H  0.57081749  0.72436341  0.64054641     0.12300
C1322       C  0.58520546  0.63079505  0.73693491    -0.23100
H1323       H  0.52374271  0.66910415  0.76188520     0.08000
C1324       C  0.44592764  0.73118475  0.72338323     0.04300
C1325       C  0.42219384  0.76245216  0.73120194    -0.20400
C1326       C  0.43491485  0.79206444  0.75518622    -0.12700
C1327       C  0.46809097  0.78624468  0.77777448     0.13000
C1328       C  0.49228177  0.75552858  0.76926179    -0.23100
C1329       C  0.43264502  0.70066784  0.69602253    -0.06200
H1330       H  0.39613910  0.76628639  0.71459219     0.14600
C1331       C  0.48017255  0.81506293  0.80746325    -0.16300
H1332       H  0.52025089  0.75383197  0.78276578     0.08900
H1333       H  0.58570426  0.60601901  0.71721344     0.06700
H1334       H  0.56966047  0.62211322  0.76316381     0.07900
H1335       H  0.61466392  0.63833571  0.74609131     0.07000
H1336       H  0.51313024  0.78683568  0.68908365     0.01900
H1337       H  0.48180401  0.75874600  0.65883197     0.02300
H1338       H  0.52755401  0.77315648  0.64170133     0.05800
H1339       H  0.40305663  0.70604876  0.68562271     0.04800
H1340       H  0.43297382  0.67287373  0.71105537    -0.00900
H1341       H  0.45157541  0.69896336  0.67068631     0.00500
H1342       H  0.50677291  0.80623132  0.82262281     0.04200
H1343       H  0.45727307  0.81819107  0.82912497     0.06100
H1344       H  0.48543813  0.84302584  0.79374020     0.07000
loop_ 
_geom_bond_atom_site_label_1 
_geom_bond_atom_site_label_2 
_geom_bond_distance 
_geom_bond_site_symmetry_2 
_ccdc_geom_bond_type 
C1            N2   1.365       .  A
C1            N6   1.362       .  A
C1         C1317   1.504       .  S
N2            C3   1.357       .  A
C3            N4   1.356       .  A
C3         C1253   1.497       .  S
N4            C5   1.351       .  A
C5            N6   1.362       .  A
C5         C1285   1.490       .  S
C7            N8   1.356       .  A
C7           N12   1.359       .  A
C7         C1157   1.489       .  S
N8            C9   1.356       .  A
C9           N10   1.361       .  A
C9         C1221   1.497       .  S
N10          C11   1.363       .  A
C11          N12   1.359       .  A
C11        C1198   1.490       .  S
C13          N14   1.365       .  A
C13          N18   1.355       .  A
C13        C1061   1.490       .  S
N14          C15   1.364       .  A
C15          N16   1.361       .  A
C15        C1093   1.494       .  S
N16          C17   1.353       .  A
C17          N18   1.353       .  A
C17        C1125   1.481       .  S
C19          N20   1.356       .  A
C19          N24   1.363       .  A
C19        C1038   1.499       .  S
N20          C21   1.358       .  A
C21          N22   1.354       .  A
C21         C997   1.492       .  S
N22          C23   1.359       .  A
C23          N24   1.359       .  A
C23         C965   1.494       .  S
C25          N26   1.359       .  A
C25          N30   1.358       .  A
C25         C878   1.496       .  S
N26          C27   1.361       .  A
C27          N28   1.354       .  A
C27         C910   1.499       .  S
N28          C29   1.357       .  A
C29          N30   1.356       .  A
C29         C933   1.476       .  S
C31          N32   1.354       .  A
C31          N36   1.358       .  A
C31         C837   1.496       .  S
N32          C33   1.357       .  A
C33          N34   1.361       .  A
C33         C773   1.486       .  S
N34          C35   1.359       .  A
C35          N36   1.362       .  A
C35         C805   1.502       .  S
C37          N38   1.353       .  A
C37          N42   1.359       .  A
C37         C686   1.496       .  S
N38          C39   1.357       .  A
C39          N40   1.358       .  A
C39         C741   1.482       .  S
N40          C41   1.362       .  A
C41          N42   1.359       .  A
C41         C718   1.485       .  S
O43         Mg45   2.132   1_545  S
O43         Mg51   2.160       .  S
O43          C78   1.243       .  S
C44          O57   1.240       .  S
C44          O81   1.273       .  A
C44          H83   1.083       .  S
Mg45         O74   2.117   1_665  S
Mg45         O89   2.223   1_565  S
Mg45         O85   2.198   1_655  S
Mg45         O56   2.293   1_655  S
O46         Mg88   2.160       .  S
O46         Mg71   2.128   1_455  S
O46          C67   1.242       .  S
O47          C78   1.275       .  A
O47         Mg71   2.289   1_554  S
C48         C105   1.492       .  S
C48          O50   1.290       .  A
C48          O62   1.259       .  A
O49          C77   1.273       .  A
O49         Mg51   2.310   1_455  S
O50         Mg82   2.365       .  S
Mg51         O57   2.114   1_655  S
Mg51         O65   2.362       .  S
Mg51         O53   2.485       .  S
C52         C435   1.488       .  S
C52          O90   1.262       .  A
C52          O58   1.295       .  A
O53          C60   1.298       .  A
H54          C67   1.084       .  S
C55          O69   1.240       .  S
C55          O70   1.273       .  A
C55          H80   1.085       .  S
O56          C79   1.275       .  A
O57         Mg71   2.124   1_454  S
O58         Mg88   2.466       .  S
C59          C93   1.484       .  S
C59          O72   1.286       .  A
C59          O64   1.260       .  A
C60         C369   1.490       .  S
C60          O87   1.260   1_554  A
Mg61         O68   2.135   1_556  S
Mg61         O69   2.120   1_566  S
Mg61         O62   2.212   1_556  S
Mg61         O63   2.289   1_565  S
Mg61         O90   2.192   1_565  S
O63          C67   1.274       .  A
O64         Mg71   2.214   1_455  S
O65          C84   1.289       .  A
O66          C86   1.301       .  A
O66         Mg82   2.499       .  S
O68         Mg82   2.158       .  S
O68          C79   1.243       .  S
O69         Mg88   2.106   1_554  S
O70         Mg82   2.312   1_545  S
Mg71         O87   2.179       .  S
O72         Mg88   2.337       .  S
H73          C78   1.081       .  S
O74         Mg82   2.112   1_545  S
O74          C77   1.241       .  S
H75          C77   1.081       .  S
H76          C79   1.085       .  S
O81         Mg88   2.310   1_554  S
C84          C99   1.490       .  S
C84          O89   1.261       .  A
O85          C86   1.262       .  A
C86         C237   1.499       .  S
C91          N92   1.357       .  A
C91          N96   1.371   1_556  A
C91         C654   1.470       .  S
N92          C93   1.342       .  A
C93          N94   1.369       .  A
N94          C95   1.370   1_556  A
C95          N96   1.370       .  A
C95         C324   1.498       .  S
C97          N98   1.360       .  A
C97         N102   1.370       .  A
C97         C901   1.476       .  S
N98          C99   1.346       .  A
C99         N100   1.372   1_655  A
N100        C101   1.370       .  A
C101        N102   1.367   1_455  A
C101        C184   1.500       .  S
C103        N104   1.358       .  A
C103        N108   1.369   1_565  A
C103       C1166   1.467       .  S
N104        C105   1.343       .  A
C105        N106   1.373   1_565  A
N106        C107   1.373       .  A
C107        N108   1.367       .  A
C107        C416   1.500   1_554  S
O109       Mg111   2.139       .  S
O109       Mg117   2.158       .  S
O109        C144   1.246       .  S
C110        O123   1.240       .  S
C110        O147   1.273       .  A
C110        H149   1.083       .  S
Mg111       O140   2.123       .  S
Mg111       O155   2.235       .  S
Mg111       O151   2.190       .  S
Mg111       O122   2.295       .  S
O112       Mg154   2.152       .  S
O112       Mg137   2.118       .  S
O112        C133   1.243       .  S
O113        C144   1.278       .  A
O113       Mg137   2.296       .  S
C114        C165   1.482       .  S
C114        O116   1.287       .  A
C114        O128   1.260       .  A
O115        C143   1.273       .  A
O115       Mg117   2.311       .  S
O116       Mg148   2.332       .  S
Mg117       O123   2.106       .  S
Mg117       O131   2.358       .  S
Mg117       O119   2.494       .  S
C118        C363   1.493       .  S
C118        O156   1.263       .  A
C118        O124   1.300       .  A
O119        C126   1.299       .  A
H120        C133   1.083       .  S
C121        O135   1.238       .  S
C121        O136   1.271       .  A
C121        H146   1.083       .  S
O122        C145   1.275       .  A
O123       Mg137   2.109       .  S
O124       Mg154   2.488       .  S
C125        C159   1.498       .  S
C125        O138   1.292       .  A
C125        O130   1.263       .  A
C126        C501   1.494       .  S
C126        O153   1.260       .  A
Mg127       O134   2.149       .  S
Mg127       O135   2.126       .  S
Mg127       O128   2.214       .  S
Mg127       O129   2.285       .  S
Mg127       O156   2.193       .  S
O129        C133   1.274       .  A
O130       Mg137   2.238       .  S
O131        C150   1.291       .  A
O132        C152   1.296       .  A
O132       Mg148   2.470   1_455  S
O134       Mg148   2.171       .  S
O134        C145   1.243       .  S
O135       Mg154   2.112       .  S
O136       Mg148   2.304       .  S
Mg137       O153   2.179       .  S
O138       Mg154   2.377       .  S
H139        C144   1.081       .  S
O140       Mg148   2.109       .  S
O140        C143   1.240       .  S
H141        C143   1.081       .  S
H142        C145   1.081   1_455  S
O147       Mg154   2.306       .  S
C150        C173   1.498       .  S
C150        O155   1.261       .  A
O151        C152   1.261   1_655  A
C152        C227   1.490       .  S
C157        N158   1.360       .  A
C157        N162   1.364       .  A
C157        C942   1.465       .  S
N158        C159   1.349       .  A
C159        N160   1.376       .  A
N160        C161   1.373       .  A
C161        N162   1.362       .  A
C161        C482   1.498       .  S
C163        N164   1.356       .  A
C163        N168   1.373       .  A
C163       C1189   1.473       .  S
N164        C165   1.341       .  A
C165        N166   1.367       .  A
N166        C167   1.371       .  A
C167        N168   1.370       .  A
C167        C350   1.500       .  S
C169        N170   1.371       .  A
C169        N174   1.357       .  A
C169       C1262   1.469       .  S
N170        C171   1.368       .  A
C171        N172   1.378       .  A
C171        C218   1.511       .  S
N172        C173   1.375       .  A
C173        N174   1.344       .  A
O175       Mg177   2.147       .  S
O175       Mg183   2.162       .  S
O175        C210   1.243       .  S
C176        O189   1.240       .  S
C176        O213   1.274       .  A
C176        H215   1.080       .  S
Mg177       O206   2.110       .  S
Mg177       O221   2.242       .  S
Mg177       O217   2.226   1_455  S
Mg177       O188   2.299   1_455  S
O178       Mg220   2.160       .  S
O178       Mg203   2.137       .  S
O178        C199   1.243       .  S
O179        C210   1.276       .  A
O179       Mg203   2.297       .  S
C180        C239   1.491       .  S
C180        O182   1.289       .  A
C180        O194   1.261       .  A
O181        C209   1.273       .  A
O181       Mg183   2.311       .  S
O182       Mg214   2.363       .  S
Mg183       O189   2.134       .  S
Mg183       O197   2.365       .  S
Mg183       O185   2.482       .  S
C184        O222   1.265   1_545  A
C184        O190   1.298       .  A
O185        C192   1.297       .  A
H186        C199   1.085       .  S
C187        O201   1.241       .  S
C187        O202   1.275       .  A
C187        H212   1.080       .  S
O188        C211   1.275       .  A
O189       Mg203   2.119       .  S
O190       Mg220   2.481   1_545  S
C191        C233   1.488       .  S
C191        O204   1.287       .  A
C191        O196   1.263       .  A
C192        C561   1.499       .  S
C192        O219   1.263       .  A
Mg193       O200   2.150       .  S
Mg193       O201   2.115   1_655  S
Mg193       O194   2.225       .  S
Mg193       O195   2.294   1_655  S
Mg193       O222   2.223   1_655  S
O195        C199   1.275       .  A
O196       Mg203   2.239       .  S
O197        C216   1.288       .  A
O198        C218   1.303       .  A
O198       Mg214   2.512       .  S
O200       Mg214   2.162       .  S
O200        C211   1.242       .  S
O201       Mg220   2.109       .  S
O202       Mg214   2.316   1_455  S
Mg203       O219   2.199       .  S
O204       Mg220   2.358       .  S
H205        C210   1.081       .  S
O206       Mg214   2.111   1_455  S
O206        C209   1.240       .  S
H207        C209   1.081       .  S
H208        C211   1.084       .  S
O213       Mg220   2.320       .  S
C216        C225   1.488       .  S
C216        O221   1.264       .  A
O217        C218   1.266       .  A
C223        N224   1.360       .  A
C223        N228   1.362       .  A
C223        C677   1.483       .  S
N224        C225   1.351       .  A
C225        N226   1.375       .  A
N226        C227   1.369       .  A
C227        N228   1.360       .  A
C229        N230   1.366       .  A
C229        N234   1.362       .  A
C229       C1006   1.484   1_565  S
N230        C231   1.361       .  A
C231        N232   1.368       .  A
C231        C521   1.491       .  S
N232        C233   1.371       .  A
C233        N234   1.349       .  A
C235        N236   1.369       .  A
C235        N240   1.360       .  A
C235       C1102   1.489       .  S
N236        C237   1.366   1_655  A
C237        N238   1.371       .  A
N238        C239   1.375   1_455  A
C239        N240   1.346       .  A
O241       Mg243   2.189       .  S
O241       Mg249   2.238       .  S
O241        C276   1.269       .  A
C242        O255   1.240       .  S
C242        O279   1.272       .  A
C242        H281   1.082       .  S
Mg243       O272   2.107       .  S
Mg243       O287   2.208       .  S
Mg243       O283   2.179       .  S
Mg243       O254   2.300       .  S
O244       Mg286   2.164       .  S
O244       Mg269   2.152       .  S
O244        C265   1.242       .  S
O245        C276   1.271       .  A
O245       Mg269   2.289       .  S
C246        C297   1.491       .  S
C246        O248   1.287       .  A
C246        O260   1.262       .  A
O247        C275   1.274       .  A
O247       Mg249   2.312       .  S
O248       Mg280   2.354       .  S
Mg249       O255   2.109       .  S
Mg249       O263   2.353       .  S
Mg249       O251   2.438       .  S
C250        C431   1.492       .  S
C250        O288   1.262       .  A
C250        O256   1.297       .  A
O251        C258   1.293       .  A
H252        C265   1.084       .  S
C253        O267   1.241       .  S
C253        O268   1.275       .  A
C253        H278   1.083       .  S
O254        C277   1.276       .  A
O255       Mg269   2.148       .  S
O256       Mg286   2.476       .  S
C257        C293   1.485       .  S
C257        O270   1.288       .  A
C257        O262   1.262       .  A
C258        C497   1.483       .  S
C258        O285   1.266       .  A
Mg259       O266   2.130       .  S
Mg259       O267   2.114       .  S
Mg259       O260   2.232       .  S
Mg259       O261   2.299       .  S
Mg259       O288   2.197       .  S
O261        C265   1.275       .  A
O262       Mg269   2.221       .  S
O263        C282   1.286       .  A
O264        C284   1.298       .  A
O264       Mg280   2.486   1_554  S
O266       Mg280   2.146       .  S
O266        C277   1.243       .  S
O267       Mg286   2.114       .  S
O268       Mg280   2.320       .  S
Mg269       O285   2.212       .  S
O270       Mg286   2.326       .  S
H271        C276   1.084       .  S
O272       Mg280   2.109       .  S
O272        C275   1.241       .  S
H273        C275   1.084       .  S
H274        C277   1.081   1_554  S
O279       Mg286   2.301       .  S
C282        C305   1.483       .  S
C282        O287   1.259       .  A
O283        C284   1.259   1_556  A
C284        C357   1.490       .  S
C289        N290   1.369       .  A
C289        N294   1.359       .  A
C289        C622   1.470       .  S
N290        C291   1.366       .  A
C291        N292   1.371       .  A
C291        C456   1.495       .  S
N292        C293   1.366       .  A
C293        N294   1.343       .  A
C295        N296   1.361       .  A
C295        N300   1.366       .  A
C295        C869   1.472       .  S
N296        C297   1.347       .  A
C297        N298   1.371       .  A
N298        C299   1.370       .  A
C299        N300   1.363       .  A
C299        C382   1.492       .  S
C301        N302   1.368       .  A
C301        N306   1.358       .  A
C301       C1294   1.468       .  S
N302        C303   1.367       .  A
C303        N304   1.367       .  A
C303        C316   1.491       .  S
N304        C305   1.369       .  A
C305        N306   1.345       .  A
O307       Mg309   2.140       .  S
O307       Mg315   2.160       .  S
O307        C342   1.243       .  S
C308        O321   1.241       .  S
C308        O345   1.274       .  A
C308        H347   1.080       .  S
Mg309       O338   2.114       .  S
Mg309       O353   2.223       .  S
Mg309       O349   2.212       .  S
Mg309       O320   2.290       .  S
O310       Mg352   2.156       .  S
O310       Mg335   2.125       .  S
O310        C331   1.243       .  S
O311        C342   1.276       .  A
O311       Mg335   2.296   1_554  S
C312        C359   1.486       .  S
C312        O314   1.287       .  A
C312        O326   1.261       .  A
O313        C341   1.274       .  A
O313       Mg315   2.312       .  S
O314       Mg346   2.347       .  S
Mg315       O321   2.113       .  S
Mg315       O329   2.365       .  S
Mg315       O317   2.496   1_655  S
C316        O354   1.262       .  A
C316        O322   1.296       .  A
O317        C324   1.300       .  A
H318        C331   1.081       .  S
C319        O333   1.242       .  S
C319        O334   1.274       .  A
C319        H344   1.078       .  S
O320        C343   1.275       .  A
O321       Mg335   2.112   1_554  S
O322       Mg352   2.471       .  S
C323        C371   1.489       .  S
C323        O336   1.287       .  A
C323        O328   1.262       .  A
C324        O351   1.262   1_455  A
Mg325       O332   2.129       .  S
Mg325       O333   2.119       .  S
Mg325       O326   2.215       .  S
Mg325       O327   2.289   1_554  S
Mg325       O354   2.198   1_554  S
O327        C331   1.275       .  A
O328       Mg335   2.233       .  S
O329        C348   1.289       .  A
O330        C350   1.298       .  A
O330       Mg346   2.485       .  S
O332       Mg346   2.158       .  S
O332        C343   1.243       .  S
O333       Mg352   2.105   1_554  S
O334       Mg346   2.311       .  S
Mg335       O351   2.193   1_556  S
O336       Mg352   2.354       .  S
H337        C342   1.082       .  S
O338       Mg346   2.104       .  S
O338        C341   1.241       .  S
H339        C341   1.082       .  S
H340        C343   1.082       .  S
O345       Mg352   2.314   1_554  S
C348        C365   1.492       .  S
C348        O353   1.261       .  A
O349        C350   1.265       .  A
C355        N356   1.368       .  A
C355        N360   1.360       .  A
C355       C1070   1.480       .  S
N356        C357   1.364       .  A
C357        N358   1.368       .  A
N358        C359   1.371       .  A
C359        N360   1.345       .  A
C361        N362   1.364       .  A
C361        N366   1.362       .  A
C361       C1029   1.482       .  S
N362        C363   1.361       .  A
C363        N364   1.370       .  A
N364        C365   1.375       .  A
C365        N366   1.349       .  A
C367        N368   1.365       .  A
C367        N372   1.361       .  A
C367        C814   1.486       .  S
N368        C369   1.363   1_556  A
C369        N370   1.368       .  A
N370        C371   1.373   1_554  A
C371        N372   1.350       .  A
O373       Mg375   2.135       .  S
O373       Mg381   2.158       .  S
O373        C408   1.242       .  S
C374        O387   1.240       .  S
C374        O411   1.274       .  A
C374        H413   1.085       .  S
Mg375       O404   2.111   1_565  S
Mg375       O419   2.231       .  S
Mg375       O415   2.211   1_565  S
Mg375       O386   2.298   1_565  S
O376       Mg418   2.160       .  S
O376       Mg401   2.146       .  S
O376        C397   1.243       .  S
O377        C408   1.275       .  A
O377       Mg401   2.293   1_565  S
C378        C429   1.491       .  S
C378        O380   1.288       .  A
C378        O392   1.262       .  A
O379        C407   1.275       .  A
O379       Mg381   2.311   1_545  S
O380       Mg412   2.364       .  S
Mg381       O387   2.125   1_565  S
Mg381       O395   2.356       .  S
Mg381       O383   2.477       .  S
C382        O420   1.262       .  A
C382        O388   1.295       .  A
O383        C390   1.296       .  A
H384        C397   1.081       .  S
C385        O399   1.241       .  S
C385        O400   1.275       .  A
C385        H410   1.082       .  S
O386        C409   1.275       .  A
O387       Mg401   2.119       .  S
O388       Mg418   2.466       .  S
C389        C423   1.483       .  S
C389        O402   1.284       .  A
C389        O394   1.265       .  A
C390        C567   1.499       .  S
C390        O417   1.266       .  A
Mg391       O398   2.138       .  S
Mg391       O399   2.115       .  S
Mg391       O392   2.237       .  S
Mg391       O393   2.301       .  S
Mg391       O420   2.209       .  S
O393        C397   1.276       .  A
O394       Mg401   2.246       .  S
O395        C414   1.287       .  A
O396        C416   1.299       .  A
O396       Mg412   2.488       .  S
O398       Mg412   2.155       .  S
O398        C409   1.243       .  S
O399       Mg418   2.120       .  S
O400       Mg412   2.319       .  S
Mg401       O417   2.216   1_545  S
O402       Mg418   2.343       .  S
H403        C408   1.079       .  S
O404       Mg412   2.115       .  S
O404        C407   1.241       .  S
H405        C407   1.077       .  S
H406        C409   1.085       .  S
O411       Mg418   2.318       .  S
C414        C437   1.486       .  S
C414        O419   1.263       .  A
O415        C416   1.263       .  A
C421        N422   1.362       .  A
C421        N426   1.365       .  A
C421        C782   1.480       .  S
N422        C423   1.350       .  A
C423        N424   1.368       .  A
N424        C425   1.365       .  A
C425        N426   1.359       .  A
C425        C546   1.484       .  S
C427        N428   1.362       .  A
C427        N432   1.365       .  A
C427        C974   1.491   1_556  S
N428        C429   1.349       .  A
C429        N430   1.373       .  A
N430        C431   1.370       .  A
C431        N432   1.362       .  A
C433        N434   1.364       .  A
C433        N438   1.361       .  A
C433        C709   1.480       .  S
N434        C435   1.360   1_565  A
C435        N436   1.368       .  A
N436        C437   1.373   1_545  A
C437        N438   1.350       .  A
O439       Mg441   2.135       .  S
O439       Mg447   2.150       .  S
O439        C474   1.242       .  S
C440        O453   1.242       .  S
C440        O477   1.275       .  A
C440        H479   1.078       .  S
Mg441       O470   2.120       .  S
Mg441       O485   2.225       .  S
Mg441       O481   2.212       .  S
Mg441       O452   2.296       .  S
O442       Mg484   2.158       .  S
O442       Mg467   2.124       .  S
O442        C463   1.241       .  S
O443        C474   1.275       .  A
O443       Mg467   2.298       .  S
C444        C489   1.483       .  S
C444        O446   1.286       .  A
C444        O458   1.264       .  A
O445        C473   1.276       .  A
O445       Mg447   2.323       .  S
O446       Mg478   2.358       .  S
Mg447       O453   2.118       .  S
Mg447       O461   2.335       .  S
Mg447       O449   2.460       .  S
C448        C555   1.501       .  S
C448        O486   1.267       .  A
C448        O454   1.297       .  A
O449        C456   1.293       .  A
H450        C463   1.083       .  S
C451        O465   1.240       .  S
C451        O466   1.275       .  A
C451        H476   1.080       .  S
O452        C475   1.273       .  A
O453       Mg467   2.112       .  S
O454       Mg484   2.480       .  S
C455        C495   1.486       .  S
C455        O468   1.287       .  A
C455        O460   1.261       .  A
C456        O483   1.264       .  A
Mg457       O464   2.146       .  S
Mg457       O465   2.117       .  S
Mg457       O458   2.226       .  S
Mg457       O459   2.289       .  S
Mg457       O486   2.225       .  S
O459        C463   1.273       .  A
O460       Mg467   2.217       .  S
O461        C480   1.283       .  A
O462        C482   1.298       .  A
O462       Mg478   2.484       .  S
O464       Mg478   2.167       .  S
O464        C475   1.240       .  S
O465       Mg484   2.124       .  S
O466       Mg478   2.317       .  S
Mg467       O483   2.210       .  S
O468       Mg484   2.369       .  S
H469        C474   1.081       .  S
O470       Mg478   2.124       .  S
O470        C473   1.242       .  S
H471        C473   1.077       .  S
H472        C475   1.084       .  S
O477       Mg484   2.314       .  S
C480        C503   1.477       .  S
C480        O485   1.261       .  A
O481        C482   1.263       .  A
C487        N488   1.362       .  A
C487        N492   1.364       .  A
C487       C1134   1.469       .  S
N488        C489   1.351       .  A
C489        N490   1.368       .  A
N490        C491   1.363       .  A
C491        N492   1.360       .  A
C491        C510   1.484       .  S
C493        N494   1.362       .  A
C493        N498   1.361       .  A
C493        C750   1.470       .  S
N494        C495   1.353       .  A
C495        N496   1.372       .  A
N496        C497   1.364       .  A
C497        N498   1.358       .  A
C499        N500   1.370       .  A
C499        N504   1.357       .  A
C499        C846   1.493       .  S
N500        C501   1.369       .  A
C501        N502   1.365       .  A
N502        C503   1.371       .  A
C503        N504   1.347       .  A
O505       Mg507   2.096       .  S
O505       Mg513   2.134       .  S
O505        C540   1.238       .  S
C506        O519   1.241       .  S
C506        O543   1.277       .  A
C506        H545   1.083       .  S
Mg507       O536   2.098       .  S
Mg507       O551   2.236       .  S
Mg507       O547   2.187       .  S
Mg507       O518   2.331       .  S
O508       Mg550   2.126       .  S
O508       Mg533   2.093       .  S
O508        C529   1.240       .  S
O509        C540   1.275       .  A
O509       Mg533   2.335       .  S
C510        O512   1.284       .  A
C510        O524   1.265       .  A
O511        C539   1.278       .  A
O511       Mg513   2.320       .  S
O512       Mg544   2.367       .  S
Mg513       O519   2.212       .  S
Mg513       O527   2.378   1_565  S
Mg513       O515   2.421       .  S
C514        C557   1.486       .  S
C514        O552   1.244       .  A
C514        O520   1.282       .  A
O515        C522   1.282       .  A
H516        C529   1.079       .  S
C517        O531   1.243       .  S
C517        O532   1.279       .  A
C517        H542   1.080       .  S
O518        C541   1.275       .  A
O519       Mg533   2.104       .  S
O520       Mg550   2.434       .  S
C521        O534   1.287       .  A
C521        O526   1.263       .  A
C522        C563   1.481       .  S
C522        O549   1.243       .  A
Mg523       O530   2.091       .  S
Mg523       O531   2.096       .  S
Mg523       O524   2.252       .  S
Mg523       O525   2.341       .  S
Mg523       O552   2.184       .  S
O525        C529   1.276       .  A
O526       Mg533   2.241       .  S
O527        C546   1.285       .  A
O528        C548   1.282       .  A
O528       Mg544   2.430       .  S
O530       Mg544   2.122       .  S
O530        C541   1.239       .  S
O531       Mg550   2.220       .  S
O532       Mg544   2.330       .  S
Mg533       O549   2.183       .  S
O534       Mg550   2.396       .  S
H535        C540   1.078       .  S
O536       Mg544   2.196       .  S
O536        C539   1.242       .  S
H537        C539   1.077       .  S
H538        C541   1.079       .  S
O543       Mg550   2.325       .  S
C546        O551   1.264   1_545  A
O547        C548   1.247       .  A
C548        C569   1.483       .  S
C553        N554   1.373       .  A
C553        N558   1.358       .  A
C553       C1230   1.470       .  S
N554        C555   1.369       .  A
C555        N556   1.370       .  A
N556        C557   1.367       .  A
C557        N558   1.342       .  A
C559        N560   1.372       .  A
C559        N564   1.355       .  A
C559        C581   1.466       .  S
N560        C561   1.369       .  A
C561        N562   1.372       .  A
N562        C563   1.367       .  A
C563        N564   1.337       .  A
C565        N566   1.374       .  A
C565        N570   1.359       .  A
C565       C1326   1.469       .  S
N566        C567   1.369       .  A
C567        N568   1.367       .  A
N568        C569   1.364       .  A
C569        N570   1.343       .  A
C571        N572   1.356       .  A
C571        N576   1.361       .  A
C571        C645   1.485       .  S
N572        C573   1.359       .  A
C573        N574   1.356       .  A
C573        C613   1.493       .  S
N574        C575   1.360       .  A
C575        N576   1.361       .  A
C575        C590   1.495       .  S
C577        H587   1.085   1_565  S
C577        C578   1.402       .  A
C577        C582   1.404       .  A
C578        C583   1.480   1_565  S
C578        C579   1.410       .  A
C579        C580   1.404       .  A
C579        C584   1.507       .  S
C580        H585   1.085       .  S
C580        C581   1.406       .  A
C581        C582   1.412       .  A
C582        C586   1.506       .  S
C583        C588   1.411       .  A
C583        C592   1.398       .  A
C584        H600   1.110       .  S
C584        H601   1.110       .  S
C584        H602   1.111       .  S
C586        H597   1.110       .  S
C586        H598   1.111   1_565  S
C586        H599   1.110       .  S
C588        C589   1.399       .  A
C588        C593   1.510       .  S
C589        H594   1.084       .  S
C589        C590   1.408       .  A
C590        C591   1.424       .  A
C591        C592   1.408       .  A
C591        C595   1.505       .  S
C592        H596   1.085       .  S
C593        H603   1.111       .  S
C593        H604   1.110       .  S
C593        H605   1.110       .  S
C595        H606   1.111       .  S
C595        H607   1.106       .  S
C595        H608   1.107       .  S
C609        H619   1.082       .  S
C609        C610   1.397       .  A
C609        C614   1.407       .  A
C610        C615   1.477       .  S
C610        C611   1.410       .  A
C611        C612   1.398       .  A
C611        C616   1.510       .  S
C612        H617   1.083       .  S
C612        C613   1.408       .  A
C613        C614   1.425       .  A
C614        C618   1.506       .  S
C615        C620   1.411       .  A
C615        C624   1.403       .  A
C616        H632   1.110       .  S
C616        H633   1.110       .  S
C616        H634   1.111       .  S
C618        H629   1.109       .  S
C618        H630   1.109       .  S
C618        H631   1.110       .  S
C620        C621   1.401       .  A
C620        C625   1.509       .  S
C621        H626   1.085       .  S
C621        C622   1.405       .  A
C622        C623   1.410       .  A
C623        C624   1.405       .  A
C623        C627   1.505       .  S
C624        H628   1.084       .  S
C625        H635   1.111       .  S
C625        H636   1.108       .  S
C625        H637   1.110       .  S
C627        H638   1.111       .  S
C627        H639   1.110       .  S
C627        H640   1.110       .  S
C641        H651   1.085       .  S
C641        C642   1.404       .  A
C641        C646   1.403       .  A
C642        C647   1.488       .  S
C642        C643   1.410       .  A
C643        C644   1.406       .  A
C643        C648   1.504       .  S
C644        H649   1.085       .  S
C644        C645   1.408       .  A
C645        C646   1.415       .  A
C646        C650   1.507       .  S
C647        C652   1.415       .  A
C647        C656   1.402       .  A
C648        H664   1.107       .  S
C648        H665   1.110       .  S
C648        H666   1.110       .  S
C650        H661   1.111       .  S
C650        H662   1.105       .  S
C650        H663   1.110       .  S
C652        C653   1.408       .  A
C652        C657   1.506       .  S
C653        H658   1.084       .  S
C653        C654   1.403       .  A
C654        C655   1.412       .  A
C655        C656   1.401       .  A
C655        C659   1.507   1_556  S
C656        H660   1.084       .  S
C657        H667   1.111       .  S
C657        H668   1.108       .  S
C657        H669   1.110       .  S
C659        H670   1.109       .  S
C659        H671   1.110       .  S
C659        H672   1.110       .  S
C673        H683   1.084       .  S
C673        C674   1.398       .  A
C673        C678   1.404       .  A
C674        C679   1.480       .  S
C674        C675   1.411       .  A
C675        C676   1.401       .  A
C675        C680   1.506       .  S
C676        H681   1.084       .  S
C676        C677   1.404       .  A
C677        C678   1.422       .  A
C678        C682   1.508       .  S
C679        C684   1.410       .  A
C679        C688   1.398       .  A
C680        H696   1.110       .  S
C680        H697   1.110       .  S
C680        H698   1.107       .  S
C682        H693   1.110       .  S
C682        H694   1.111       .  S
C682        H695   1.110       .  S
C684        C685   1.399       .  A
C684        C689   1.509       .  S
C685        H690   1.082       .  S
C685        C686   1.409       .  A
C686        C687   1.426       .  A
C687        C688   1.406       .  A
C687        C691   1.508       .  S
C688        H692   1.084       .  S
C689        H699   1.111       .  S
C689        H700   1.110       .  S
C689        H701   1.110       .  S
C691        H702   1.110       .  S
C691        H703   1.111       .  S
C691        H704   1.108       .  S
C705        H715   1.084       .  S
C705        C706   1.402       .  A
C705        C710   1.397       .  A
C706        C711   1.482       .  S
C706        C707   1.411       .  A
C707        C708   1.405       .  A
C707        C712   1.507       .  S
C708        H713   1.083       .  S
C708        C709   1.408       .  A
C709        C710   1.412       .  A
C710        C714   1.502       .  S
C711        C716   1.410       .  A
C711        C720   1.403       .  A
C712        H728   1.108       .  S
C712        H729   1.110       .  S
C712        H730   1.111       .  S
C714        H725   1.110       .  S
C714        H726   1.110       .  S
C714        H727   1.107       .  S
C716        C717   1.403       .  A
C716        C721   1.508       .  S
C717        H722   1.083       .  S
C717        C718   1.409       .  A
C718        C719   1.414       .  A
C719        C720   1.400       .  A
C719        C723   1.505       .  S
C720        H724   1.084       .  S
C721        H731   1.111       .  S
C721        H732   1.108       .  S
C721        H733   1.110       .  S
C723        H734   1.111       .  S
C723        H735   1.109       .  S
C723        H736   1.108       .  S
C737        H747   1.083       .  S
C737        C738   1.400       .  A
C737        C742   1.407       .  A
C738        C743   1.475       .  S
C738        C739   1.412       .  A
C739        C740   1.396       .  A
C739        C744   1.511       .  S
C740        H745   1.082       .  S
C740        C741   1.404       .  A
C741        C742   1.417       .  A
C742        C746   1.503       .  S
C743        C748   1.408       .  A
C743        C752   1.398       .  A
C744        H760   1.110       .  S
C744        H761   1.109       .  S
C744        H762   1.111       .  S
C746        H757   1.106       .  S
C746        H758   1.110       .  S
C746        H759   1.111       .  S
C748        C749   1.404       .  A
C748        C753   1.504       .  S
C749        H754   1.082       .  S
C749        C750   1.402       .  A
C750        C751   1.417       .  A
C751        C752   1.399       .  A
C751        C755   1.509       .  S
C752        H756   1.084       .  S
C753        H763   1.107       .  S
C753        H764   1.110       .  S
C753        H765   1.109       .  S
C755        H766   1.111       .  S
C755        H767   1.110       .  S
C755        H768   1.110       .  S
C769        H779   1.084       .  S
C769        C770   1.402       .  A
C769        C774   1.401       .  A
C770        C775   1.477       .  S
C770        C771   1.407       .  A
C771        C772   1.400       .  A
C771        C776   1.508       .  S
C772        H777   1.082       .  S
C772        C773   1.409       .  A
C773        C774   1.416       .  A
C774        C778   1.505       .  S
C775        C780   1.409       .  A
C775        C784   1.401       .  A
C776        H792   1.109       .  S
C776        H793   1.110       .  S
C776        H794   1.111       .  S
C778        H789   1.111       .  S
C778        H790   1.109       .  S
C778        H791   1.108       .  S
C780        C781   1.405       .  A
C780        C785   1.506       .  S
C781        H786   1.083       .  S
C781        C782   1.409       .  A
C782        C783   1.414       .  A
C783        C784   1.396       .  A
C783        C787   1.504       .  S
C784        H788   1.084       .  S
C785        H795   1.111       .  S
C785        H796   1.109       .  S
C785        H797   1.110       .  S
C787        H798   1.110       .  S
C787        H799   1.105       .  S
C787        H800   1.110       .  S
C801        H811   1.084       .  S
C801        C802   1.399       .  A
C801        C806   1.410       .  A
C802        C807   1.482       .  S
C802        C803   1.409       .  A
C803        C804   1.398       .  A
C803        C808   1.510       .  S
C804        H809   1.083       .  S
C804        C805   1.409       .  A
C805        C806   1.428       .  A
C806        C810   1.505       .  S
C807        C812   1.409       .  A
C807        C816   1.401       .  A
C808        H824   1.110       .  S
C808        H825   1.110       .  S
C808        H826   1.111       .  S
C810        H821   1.110       .  S
C810        H822   1.109       .  S
C810        H823   1.111       .  S
C812        C813   1.400       .  A
C812        C817   1.507       .  S
C813        H818   1.084       .  S
C813        C814   1.404       .  A
C814        C815   1.422       .  A
C815        C816   1.406       .  A
C815        C819   1.508       .  S
C816        H820   1.085       .  S
C817        H827   1.110       .  S
C817        H828   1.110       .  S
C817        H829   1.110       .  S
C819        H830   1.111       .  S
C819        H831   1.110       .  S
C819        H832   1.110       .  S
C833        H843   1.084       .  S
C833        C834   1.401       .  A
C833        C838   1.405       .  A
C834        C839   1.487       .  S
C834        C835   1.410       .  A
C835        C836   1.404       .  A
C835        C840   1.507       .  S
C836        H841   1.083       .  S
C836        C837   1.410       .  A
C837        C838   1.422       .  A
C838        C842   1.509       .  S
C839        C844   1.411       .  A
C839        C848   1.399       .  A
C840        H856   1.108       .  S
C840        H857   1.110       .  S
C840        H858   1.111       .  S
C842        H853   1.110       .  S
C842        H854   1.111       .  S
C842        H855   1.107       .  S
C844        C845   1.409       .  A
C844        C849   1.506       .  S
C845        H850   1.083       .  S
C845        C846   1.410       .  A
C846        C847   1.423       .  A
C847        C848   1.399       .  A
C847        C851   1.509       .  S
C848        H852   1.085       .  S
C849        H859   1.111       .  S
C849        H860   1.109       .  S
C849        H861   1.110       .  S
C851        H862   1.110       .  S
C851        H863   1.103       .  S
C851        H864   1.111       .  S
C865        H875   1.086       .  S
C865        C866   1.401       .  A
C865        C870   1.398   1_554  A
C866        C871   1.480       .  S
C866        C867   1.412       .  A
C867        C868   1.404   1_554  A
C867        C872   1.506       .  S
C868        H873   1.086       .  S
C868        C869   1.403       .  A
C869        C870   1.411       .  A
C870        C874   1.503       .  S
C871        C876   1.405       .  A
C871        C880   1.401       .  A
C872        H888   1.109       .  S
C872        H889   1.110       .  S
C872        H890   1.111       .  S
C874        H885   1.105       .  S
C874        H886   1.110       .  S
C874        H887   1.110       .  S
C876        C877   1.405       .  A
C876        C881   1.506       .  S
C877        H882   1.082       .  S
C877        C878   1.414       .  A
C878        C879   1.422       .  A
C879        C880   1.400       .  A
C879        C883   1.509       .  S
C880        H884   1.084       .  S
C881        H891   1.111       .  S
C881        H892   1.109       .  S
C881        H893   1.110       .  S
C883        H894   1.109       .  S
C883        H895   1.109       .  S
C883        H896   1.111       .  S
C897        H907   1.084       .  S
C897        C898   1.402       .  A
C897        C902   1.405       .  A
C898        C903   1.480       .  S
C898        C899   1.410       .  A
C899        C900   1.402       .  A
C899        C904   1.507       .  S
C900        H905   1.084       .  S
C900        C901   1.406       .  A
C901        C902   1.414       .  A
C902        C906   1.506       .  S
C903        C908   1.410       .  A
C903        C912   1.398       .  A
C904        H920   1.110       .  S
C904        H921   1.110       .  S
C904        H922   1.110       .  S
C906        H917   1.110       .  S
C906        H918   1.111       .  S
C906        H919   1.110       .  S
C908        C909   1.397       .  A
C908        C913   1.511       .  S
C909        H914   1.083       .  S
C909        C910   1.408       .  A
C910        C911   1.429       .  A
C911        C912   1.410       .  A
C911        C915   1.508       .  S
C912        H916   1.084       .  S
C913        H923   1.111       .  S
C913        H924   1.110       .  S
C913        H925   1.110       .  S
C915        H926   1.110       .  S
C915        H927   1.111       .  S
C915        H928   1.110       .  S
C929        H939   1.085       .  S
C929        C930   1.401       .  A
C929        C934   1.406       .  A
C930        C935   1.477       .  S
C930        C931   1.415       .  A
C931        C932   1.396       .  A
C931        C936   1.512       .  S
C932        H937   1.085       .  S
C932        C933   1.401       .  A
C933        C934   1.418       .  A
C934        C938   1.507       .  S
C935        C940   1.410       .  A
C935        C944   1.398       .  A
C936        H952   1.110       .  S
C936        H953   1.108       .  S
C936        H954   1.111       .  S
C938        H949   1.110       .  S
C938        H950   1.111       .  S
C938        H951   1.105       .  S
C940        C941   1.406       .  A
C940        C945   1.504       .  S
C941        H946   1.085       .  S
C941        C942   1.402       .  A
C942        C943   1.413       .  A
C943        C944   1.397       .  A
C943        C947   1.509       .  S
C944        H948   1.086       .  S
C945        H955   1.109       .  S
C945        H956   1.110       .  S
C945        H957   1.109       .  S
C947        H958   1.111       .  S
C947        H959   1.110       .  S
C947        H960   1.110       .  S
C961        H971   1.083       .  S
C961        C962   1.400       .  A
C961        C966   1.408       .  A
C962        C967   1.483       .  S
C962        C963   1.410       .  A
C963        C964   1.400       .  A
C963        C968   1.509       .  S
C964        H969   1.083       .  S
C964        C965   1.407       .  A
C965        C966   1.424       .  A
C966        C970   1.507       .  S
C967        C972   1.410       .  A
C967        C976   1.401       .  A
C968        H984   1.110       .  S
C968        H985   1.111       .  S
C968        H986   1.111       .  S
C970        H981   1.110       .  S
C970        H982   1.110       .  S
C970        H983   1.111       .  S
C972        C973   1.398       .  A
C972        C977   1.509       .  S
C973        H978   1.084       .  S
C973        C974   1.407       .  A
C974        C975   1.423       .  A
C975        C976   1.408       .  A
C975        C979   1.507   1_554  S
C976        H980   1.083       .  S
C977        H987   1.109       .  S
C977        H988   1.110       .  S
C977        H989   1.111       .  S
C979        H990   1.111   1_556  S
C979        H991   1.110       .  S
C979        H992   1.110       .  S
C993       H1003   1.084       .  S
C993        C994   1.399       .  A
C993        C998   1.405       .  A
C994        C999   1.484       .  S
C994        C995   1.412       .  A
C995        C996   1.401       .  A
C995       C1000   1.508       .  S
C996       H1001   1.084       .  S
C996        C997   1.407       .  A
C997        C998   1.424       .  A
C998       C1002   1.508       .  S
C999       C1004   1.413       .  A
C999       C1008   1.402       .  A
C1000      H1016   1.110       .  S
C1000      H1017   1.110       .  S
C1000      H1018   1.111       .  S
C1002      H1013   1.110       .  S
C1002      H1014   1.111       .  S
C1002      H1015   1.110       .  S
C1004      C1005   1.398       .  A
C1004      C1009   1.510       .  S
C1005      H1010   1.084       .  S
C1005      C1006   1.404       .  A
C1006      C1007   1.421       .  A
C1007      C1008   1.407       .  A
C1007      C1011   1.508       .  S
C1008      H1012   1.084       .  S
C1009      H1019   1.109       .  S
C1009      H1020   1.109       .  S
C1009      H1021   1.110       .  S
C1011      H1022   1.111       .  S
C1011      H1023   1.110   1_545  S
C1011      H1024   1.110       .  S
C1025      H1035   1.083       .  S
C1025      C1026   1.399       .  A
C1025      C1030   1.405       .  A
C1026      C1031   1.480       .  S
C1026      C1027   1.411       .  A
C1027      C1028   1.400       .  A
C1027      C1032   1.507       .  S
C1028      H1033   1.082   1_455  S
C1028      C1029   1.404   1_455  A
C1029      C1030   1.421   1_655  A
C1030      C1034   1.508   1_455  S
C1031      C1036   1.411       .  A
C1031      C1040   1.397       .  A
C1032      H1048   1.110       .  S
C1032      H1049   1.111       .  S
C1032      H1050   1.111       .  S
C1034      H1045   1.110       .  S
C1034      H1046   1.111   1_655  S
C1034      H1047   1.110       .  S
C1036      C1037   1.399       .  A
C1036      C1041   1.510       .  S
C1037      H1042   1.083       .  S
C1037      C1038   1.408       .  A
C1038      C1039   1.429       .  A
C1039      C1040   1.407       .  A
C1039      C1043   1.508       .  S
C1040      H1044   1.084       .  S
C1041      H1051   1.111       .  S
C1041      H1052   1.110       .  S
C1041      H1053   1.110       .  S
C1043      H1054   1.110       .  S
C1043      H1055   1.111       .  S
C1043      H1056   1.110       .  S
C1057      H1067   1.083       .  S
C1057      C1058   1.405       .  A
C1057      C1062   1.404       .  A
C1058      C1063   1.480       .  S
C1058      C1059   1.406       .  A
C1059      C1060   1.401       .  A
C1059      C1064   1.508       .  S
C1060      H1065   1.082       .  S
C1060      C1061   1.413       .  A
C1061      C1062   1.415       .  A
C1062      C1066   1.506       .  S
C1063      C1068   1.410       .  A
C1063      C1072   1.401       .  A
C1064      H1080   1.109       .  S
C1064      H1081   1.110       .  S
C1064      H1082   1.111       .  S
C1066      H1077   1.108       .  S
C1066      H1078   1.111       .  S
C1066      H1079   1.109       .  S
C1068      C1069   1.406       .  A
C1068      C1073   1.506       .  S
C1069      H1074   1.085       .  S
C1069      C1070   1.408       .  A
C1070      C1071   1.416       .  A
C1071      C1072   1.396       .  A
C1071      C1075   1.508       .  S
C1072      H1076   1.085       .  S
C1073      H1083   1.111       .  S
C1073      H1084   1.109       .  S
C1073      H1085   1.110       .  S
C1075      H1086   1.110       .  S
C1075      H1087   1.110       .  S
C1075      H1088   1.110       .  S
C1089      H1099   1.085       .  S
C1089      C1090   1.403       .  A
C1089      C1094   1.410       .  A
C1090      C1095   1.490       .  S
C1090      C1091   1.414       .  A
C1091      C1092   1.400       .  A
C1091      C1096   1.509       .  S
C1092      H1097   1.085       .  S
C1092      C1093   1.406       .  A
C1093      C1094   1.421       .  A
C1094      C1098   1.506       .  S
C1095      C1100   1.413       .  A
C1095      C1104   1.404       .  A
C1096      H1112   1.109       .  S
C1096      H1113   1.110       .  S
C1096      H1114   1.111       .  S
C1098      H1109   1.111       .  S
C1098      H1110   1.109       .  S
C1098      H1111   1.110       .  S
C1100      C1101   1.400       .  A
C1100      C1105   1.508       .  S
C1101      H1106   1.083       .  S
C1101      C1102   1.405       .  A
C1102      C1103   1.419       .  A
C1103      C1104   1.409       .  A
C1103      C1107   1.507       .  S
C1104      H1108   1.085       .  S
C1105      H1115   1.109       .  S
C1105      H1116   1.109       .  S
C1105      H1117   1.110       .  S
C1107      H1118   1.111       .  S
C1107      H1119   1.110       .  S
C1107      H1120   1.110       .  S
C1121      H1131   1.084       .  S
C1121      C1122   1.401       .  A
C1121      C1126   1.408       .  A
C1122      C1127   1.476       .  S
C1122      C1123   1.410       .  A
C1123      C1124   1.395       .  A
C1123      C1128   1.510       .  S
C1124      H1129   1.084       .  S
C1124      C1125   1.405       .  A
C1125      C1126   1.418       .  A
C1126      C1130   1.506       .  S
C1127      C1132   1.410       .  A
C1127      C1136   1.400       .  A
C1128      H1144   1.110       .  S
C1128      H1145   1.110       .  S
C1128      H1146   1.111       .  S
C1130      H1141   1.109       .  S
C1130      H1142   1.110       .  S
C1130      H1143   1.111       .  S
C1132      C1133   1.402       .  A
C1132      C1137   1.505       .  S
C1133      H1138   1.084       .  S
C1133      C1134   1.401       .  A
C1134      C1135   1.415       .  A
C1135      C1136   1.402       .  A
C1135      C1139   1.508       .  S
C1136      H1140   1.084       .  S
C1137      H1147   1.108       .  S
C1137      H1148   1.110       .  S
C1137      H1149   1.110       .  S
C1139      H1150   1.111       .  S
C1139      H1151   1.110       .  S
C1139      H1152   1.110       .  S
C1153      H1163   1.083       .  S
C1153      C1154   1.404       .  A
C1153      C1158   1.403       .  A
C1154      C1159   1.486       .  S
C1154      C1155   1.409       .  A
C1155      C1156   1.405       .  A
C1155      C1160   1.507       .  S
C1156      H1161   1.082       .  S
C1156      C1157   1.410       .  A
C1157      C1158   1.417       .  A
C1158      C1162   1.508       .  S
C1159      C1164   1.414       .  A
C1159      C1168   1.403       .  A
C1160      H1176   1.108       .  S
C1160      H1177   1.110       .  S
C1160      H1178   1.110       .  S
C1162      H1173   1.111       .  S
C1162      H1174   1.111       .  S
C1162      H1175   1.106       .  S
C1164      C1165   1.407       .  A
C1164      C1169   1.507       .  S
C1165      H1170   1.084       .  S
C1165      C1166   1.403       .  A
C1166      C1167   1.410       .  A
C1167      C1168   1.399       .  A
C1167      C1171   1.506   1_565  S
C1168      H1172   1.083       .  S
C1169      H1179   1.111       .  S
C1169      H1180   1.108       .  S
C1169      H1181   1.110       .  S
C1171      H1182   1.109       .  S
C1171      H1183   1.110       .  S
C1171      H1184   1.109       .  S
C1185      H1195   1.084       .  S
C1185      C1186   1.404   1_455  A
C1185      C1190   1.407   1_455  A
C1186      C1191   1.483   1_655  S
C1186      C1187   1.409       .  A
C1187      C1188   1.404       .  A
C1187      C1192   1.508       .  S
C1188      H1193   1.085       .  S
C1188      C1189   1.406       .  A
C1189      C1190   1.411       .  A
C1190      C1194   1.505       .  S
C1191      C1196   1.413       .  A
C1191      C1200   1.400       .  A
C1192      H1208   1.109       .  S
C1192      H1209   1.110       .  S
C1192      H1210   1.111       .  S
C1194      H1205   1.110       .  S
C1194      H1206   1.111   1_655  S
C1194      H1207   1.110       .  S
C1196      C1197   1.400       .  A
C1196      C1201   1.509       .  S
C1197      H1202   1.083       .  S
C1197      C1198   1.404       .  A
C1198      C1199   1.422       .  A
C1199      C1200   1.410       .  A
C1199      C1203   1.504       .  S
C1200      H1204   1.083       .  S
C1201      H1211   1.111       .  S
C1201      H1212   1.110       .  S
C1201      H1213   1.110       .  S
C1203      H1214   1.109       .  S
C1203      H1215   1.106       .  S
C1203      H1216   1.106       .  S
C1217      H1227   1.086       .  S
C1217      C1218   1.402       .  A
C1217      C1222   1.401       .  A
C1218      C1223   1.489       .  S
C1218      C1219   1.411       .  A
C1219      C1220   1.407       .  A
C1219      C1224   1.503       .  S
C1220      H1225   1.085       .  S
C1220      C1221   1.411       .  A
C1221      C1222   1.423       .  A
C1222      C1226   1.510       .  S
C1223      C1228   1.416       .  A
C1223      C1232   1.404       .  A
C1224      H1240   1.109       .  S
C1224      H1241   1.110       .  S
C1224      H1242   1.107       .  S
C1226      H1237   1.111       .  S
C1226      H1238   1.109       .  S
C1226      H1239   1.109       .  S
C1228      C1229   1.407       .  A
C1228      C1233   1.507       .  S
C1229      H1234   1.085       .  S
C1229      C1230   1.403       .  A
C1230      C1231   1.413       .  A
C1231      C1232   1.402       .  A
C1231      C1235   1.507       .  S
C1232      H1236   1.086       .  S
C1233      H1243   1.111       .  S
C1233      H1244   1.110       .  S
C1233      H1245   1.107       .  S
C1235      H1246   1.111       .  S
C1235      H1247   1.109       .  S
C1235      H1248   1.110       .  S
C1249      H1259   1.085       .  S
C1249      C1250   1.400       .  A
C1249      C1254   1.410       .  A
C1250      C1255   1.481       .  S
C1250      C1251   1.413       .  A
C1251      C1252   1.396       .  A
C1251      C1256   1.513       .  S
C1252      H1257   1.083       .  S
C1252      C1253   1.407       .  A
C1253      C1254   1.425       .  A
C1254      C1258   1.505       .  S
C1255      C1260   1.410       .  A
C1255      C1264   1.402       .  A
C1256      H1272   1.110       .  S
C1256      H1273   1.107       .  S
C1256      H1274   1.111       .  S
C1258      H1269   1.108       .  S
C1258      H1270   1.110       .  S
C1258      H1271   1.111       .  S
C1260      C1261   1.406       .  A
C1260      C1265   1.509       .  S
C1261      H1266   1.084       .  S
C1261      C1262   1.405       .  A
C1262      C1263   1.412       .  A
C1263      C1264   1.402       .  A
C1263      C1267   1.505       .  S
C1264      H1268   1.085       .  S
C1265      H1275   1.111       .  S
C1265      H1276   1.108       .  S
C1265      H1277   1.108       .  S
C1267      H1278   1.110       .  S
C1267      H1279   1.110       .  S
C1267      H1280   1.111       .  S
C1281      H1291   1.085       .  S
C1281      C1282   1.395       .  A
C1281      C1286   1.407       .  A
C1282      C1287   1.479       .  S
C1282      C1283   1.414       .  A
C1283      C1284   1.400       .  A
C1283      C1288   1.509       .  S
C1284      H1289   1.085       .  S
C1284      C1285   1.403       .  A
C1285      C1286   1.427       .  A
C1286      C1290   1.508       .  S
C1287      C1292   1.408       .  A
C1287      C1296   1.398       .  A
C1288      H1304   1.110       .  S
C1288      H1305   1.110       .  S
C1288      H1306   1.111       .  S
C1290      H1301   1.109       .  S
C1290      H1302   1.111       .  S
C1290      H1303   1.110       .  S
C1292      C1293   1.406       .  A
C1292      C1297   1.502       .  S
C1293      H1298   1.084       .  S
C1293      C1294   1.403       .  A
C1294      C1295   1.414       .  A
C1295      C1296   1.399       .  A
C1295      C1299   1.506       .  S
C1296      H1300   1.084       .  S
C1297      H1307   1.109       .  S
C1297      H1308   1.110       .  S
C1297      H1309   1.109       .  S
C1299      H1310   1.110       .  S
C1299      H1311   1.110       .  S
C1299      H1312   1.111       .  S
C1313      H1323   1.081       .  S
C1313      C1314   1.400       .  A
C1313      C1318   1.413       .  A
C1314      C1319   1.486       .  S
C1314      C1315   1.412       .  A
C1315      C1316   1.399       .  A
C1315      C1320   1.512       .  S
C1316      H1321   1.078       .  S
C1316      C1317   1.409       .  A
C1317      C1318   1.427       .  A
C1318      C1322   1.507       .  S
C1319      C1324   1.411       .  A
C1319      C1328   1.402       .  A
C1320      H1336   1.110       .  S
C1320      H1337   1.108       .  S
C1320      H1338   1.111       .  S
C1322      H1333   1.109       .  S
C1322      H1334   1.110       .  S
C1322      H1335   1.109       .  S
C1324      C1325   1.405       .  A
C1324      C1329   1.506       .  S
C1325      H1330   1.084       .  S
C1325      C1326   1.405       .  A
C1326      C1327   1.412       .  A
C1327      C1328   1.405       .  A
C1327      C1331   1.506       .  S
C1328      H1332   1.084       .  S
C1329      H1339   1.111       .  S
C1329      H1340   1.109       .  S
C1329      H1341   1.109       .  S
C1331      H1342   1.111       .  S
C1331      H1343   1.110       .  S
C1331      H1344   1.110       .  S
