geometry optimzed in LAMMPS
_audit_creation_date              2020-11-30 
_audit_creation_method            'lammps2cif' 
_symmetry_space_group_name_H-M    'P1' 
_symmetry_Int_Tables_number       1 
_symmetry_cell_setting            triclinic 
loop_ 
_symmetry_equiv_pos_as_xyz 
  x,y,z 
_cell_length_a                    26.14529665 
_cell_length_b                    25.811215446445583 
_cell_length_c                    28.426301281477592 
_cell_angle_alpha                 90.62091709471284 
_cell_angle_beta                  89.83190077049059 
_cell_angle_gamma                 91.06504499925701 
loop_ 
_atom_site_label 
_atom_site_type_symbol 
_atom_site_fract_x 
_atom_site_fract_y 
_atom_site_fract_z 
_atom_site_charge 
C1          C  0.25914610  0.90927324  0.00725042    -0.01400
C2          C  0.25347114  0.14485385  0.99495746    -0.01400
C3          C  0.85628107  0.74460012  0.50476189    -0.01400
C4          C  0.07692148  0.75598867  0.00949085    -0.01400
C5          C  0.67188769  0.88772756  0.50219955    -0.01400
C6          C  0.66614908  0.12289126  0.99808116    -0.01400
O7          O  0.86439163  0.66326860  0.30417583    -0.56700
C8          C  0.85150953  0.71137380  0.45881325     0.75900
O9          O  0.71489057  0.65643145  0.39375052    -0.57900
C10         C  0.82951758  0.64334835  0.27814393     0.75900
C11         C  0.81150867  0.53632049  0.39854054     0.78300
Cd12       Cd  0.81052036  0.64608647  0.37963172     1.37500
O13         O  0.82763793  0.72783489  0.42361572    -0.56700
O14         O  0.85154432  0.56172238  0.38704217    -0.55500
C15         C  0.71594324  0.70112460  0.37531098     0.78200
O16         O  0.77144314  0.56232589  0.40611676    -0.57900
O17         O  0.86433731  0.66430969  0.45514608    -0.56400
O18         O  0.79115863  0.62450766  0.29926165    -0.56300
O19         O  0.75809571  0.71637011  0.35812473    -0.55500
O20         O  0.66356357  0.87715958  0.41674119    -0.56700
C21         C  0.59850720  0.83378168  0.27818970     0.75900
O22         O  0.62823887  0.72673551  0.39084533    -0.57900
C23         C  0.64377471  0.87095416  0.45712967     0.75900
C24         C  0.49273689  0.82917822  0.38925986     0.78300
Cd25       Cd  0.60040200  0.81942341  0.37657168     1.37500
O26         O  0.61550322  0.87102063  0.30374273    -0.56700
O27         O  0.52147382  0.86692974  0.37721274    -0.55500
C28         C  0.67296092  0.73701278  0.37526321     0.78200
O29         O  0.51408393  0.78624860  0.39748962    -0.57900
O30         O  0.58167283  0.79374168  0.29876828    -0.56400
O31         O  0.60066329  0.84798153  0.45776042    -0.56300
O32         O  0.68113900  0.78233429  0.36049059    -0.55500
O33         O  0.60530933  0.13507111  0.29829735    -0.56700
C34         C  0.63815257  0.13687648  0.45238255     0.75900
O35         O  0.62726974  0.28351031  0.38545147    -0.57900
C36         C  0.59203034  0.17303298  0.27317358     0.75900
C37         C  0.48947657  0.20059032  0.38344798     0.78300
Cd38       Cd  0.59707035  0.19077081  0.37199865     1.37500
O39         O  0.66028359  0.13537690  0.41272283    -0.56700
O40         O  0.50976914  0.15862653  0.37006189    -0.55500
C41         C  0.67175462  0.27388863  0.37004078     0.78200
O42         O  0.51937551  0.23787817  0.39526521    -0.57900
O43         O  0.59334349  0.15457550  0.45200711    -0.56400
O44         O  0.58057944  0.21438840  0.29435254    -0.56300
O45         O  0.67933884  0.22838243  0.35529662    -0.55500
O46         O  0.81396318  0.29124673  0.42530741    -0.56700
C47         C  0.82797845  0.36991750  0.27797275     0.75900
O48         O  0.71387138  0.35503670  0.39154478    -0.57900
C49         C  0.84308220  0.30617433  0.45817627     0.75900
C50         C  0.81099106  0.47910228  0.39832123     0.78300
Cd51       Cd  0.80842665  0.36918509  0.37856448     1.37500
O52         O  0.86226327  0.35046053  0.30381995    -0.56700
O53         O  0.85072772  0.45435990  0.38699951    -0.55500
C54         C  0.71480431  0.31101969  0.37090355     0.78200
O55         O  0.77039398  0.45238665  0.40530171    -0.57900
O56         O  0.79028929  0.38923120  0.29907443    -0.56400
O57         O  0.86390459  0.35043003  0.45200778    -0.56300
O58         O  0.75673543  0.29768574  0.35265562    -0.55500
O59         O  0.08259225  0.73864548  0.42328765    -0.56700
C60         C  0.10195927  0.65791682  0.28131870     0.75900
O61         O  0.21479737  0.67789828  0.39241297    -0.57900
C62         C  0.08091024  0.72071877  0.46447107     0.75900
C63         C  0.11517863  0.55152773  0.39648634     0.78300
Cd64       Cd  0.11962566  0.66171832  0.38244802     1.37500
O65         O  0.06663420  0.67628324  0.30720153    -0.56700
O66         O  0.07482087  0.57732032  0.39038858    -0.55500
C67         C  0.21115245  0.72474748  0.37973567     0.78200
O68         O  0.15680174  0.57723826  0.40136393    -0.57900
O69         O  0.14064326  0.64143934  0.30242698    -0.56400
O70         O  0.08802659  0.67224405  0.46637524    -0.56300
O71         O  0.16734945  0.73957779  0.36806276    -0.55500
O72         O  0.32320676  0.89892452  0.30515027    -0.56700
C73         C  0.28694354  0.89629001  0.46086368     0.75900
O74         O  0.29955981  0.75181221  0.38990414    -0.57900
C75         C  0.33253258  0.85912904  0.27990706     0.75900
C76         C  0.43696630  0.83495049  0.39056339     0.78300
Cd77       Cd  0.32899855  0.84472508  0.37915735     1.37500
O78         O  0.26574526  0.90099707  0.42111857    -0.56700
O79         O  0.41692690  0.87738789  0.37901577    -0.55500
C80         C  0.25375137  0.76241420  0.37946002     0.78200
O81         O  0.40674506  0.79753898  0.40064842    -0.57900
O82         O  0.33117448  0.87717620  0.45985865    -0.56400
O83         O  0.33998944  0.81729277  0.30105970    -0.56300
O84         O  0.24484142  0.80887144  0.36937243    -0.55500
O85         O  0.06114487  0.36539680  0.29265093    -0.56700
C86         C  0.07619338  0.32003613  0.44462493     0.75900
O87         O  0.20888690  0.37476840  0.38628987    -0.57900
C88         C  0.09418672  0.38748576  0.26634140     0.75900
C89         C  0.11443708  0.49443637  0.39305767     0.78300
Cd90       Cd  0.11474620  0.38572110  0.36759858     1.37500
O91         O  0.05579627  0.36374908  0.43873508    -0.56700
O92         O  0.07327254  0.46904787  0.38527357    -0.55500
C93         C  0.20926803  0.33035462  0.36649020     0.78200
O94         O  0.15537260  0.46875508  0.39344834    -0.57900
O95         O  0.10634237  0.30656987  0.41221817    -0.56400
O96         O  0.13151081  0.40913812  0.28712140    -0.56300
O97         O  0.16889860  0.31590190  0.34541601    -0.55500
O98         O  0.31253372  0.16146813  0.29715179    -0.56700
C99         C  0.28347751  0.16055399  0.45073622     0.75900
O100        O  0.41159657  0.24780320  0.39273529    -0.57900
C101        C  0.32685396  0.19985017  0.27230379     0.75900
C102        C  0.25178106  0.29403135  0.36908579     0.78300
Cd103      Cd  0.32579959  0.21293656  0.37106507     1.37500
O104        O  0.26838935  0.14779180  0.40972937    -0.56700
O105        O  0.24416134  0.24804846  0.35485319    -0.55500
C106        C  0.43372901  0.20563940  0.38243290     0.78200
O107        O  0.29577990  0.30494493  0.38594125    -0.57900
O108        O  0.32189224  0.19094661  0.45247022    -0.56400
O109        O  0.34157019  0.24069702  0.29364695    -0.56300
O110        O  0.40574139  0.16783325  0.36873134    -0.55500
C111        C  0.85037191  0.27197573  0.50231468    -0.01400
C112        C  0.06906489  0.28604182  0.98778616    -0.01400
O113        O  0.81126957  0.71893469  0.07649161    -0.56700
C114        C  0.82904740  0.64261243  0.22596265     0.75900
O115        O  0.71474326  0.65591348  0.10732427    -0.57900
C116        C  0.84560337  0.70817756  0.04701699     0.75900
C117        C  0.80625003  0.53342651  0.10420152     0.78300
Cd118      Cd  0.80804014  0.64259040  0.12486973     1.37500
O119        O  0.86283382  0.66293503  0.19922843    -0.56700
O120        O  0.84774012  0.55896710  0.10954832    -0.55500
C121        C  0.71565596  0.69933309  0.12901242     0.78200
O122        O  0.76540458  0.55916613  0.10281934    -0.57900
O123        O  0.79083320  0.62217558  0.20562738    -0.56400
O124        O  0.86896088  0.66648687  0.05527270    -0.56300
O125        O  0.75655458  0.71217125  0.15008463    -0.55500
O126        O  0.61668184  0.87086387  0.20216107    -0.56700
C127        C  0.64444416  0.87148250  0.04772837     0.75900
O128        O  0.63015236  0.72746495  0.11069509    -0.57900
C129        C  0.59919241  0.83367259  0.22687372     0.75900
C130        C  0.49524989  0.82430220  0.11725749     0.78300
Cd131      Cd  0.60274930  0.81919223  0.12814799     1.37500
O132        O  0.66196406  0.88272879  0.08828265    -0.56700
O133        O  0.52290189  0.86357403  0.12776724    -0.55500
C134        C  0.67406486  0.73649920  0.12836932     0.78200
O135        O  0.51769478  0.78178347  0.10921414    -0.57900
O136        O  0.60490799  0.84256827  0.04714457    -0.56400
O137        O  0.58309410  0.79349377  0.20540566    -0.56300
O138        O  0.68254739  0.78138365  0.14495650    -0.55500
O139        O  0.60185484  0.13483570  0.19531338    -0.56700
C140        C  0.63733375  0.13948353  0.04279420     0.75900
O141        O  0.51618232  0.23964643  0.10563319    -0.57900
C142        C  0.59125477  0.17326526  0.22176241     0.75900
C143        C  0.66975221  0.27212546  0.12574633     0.78300
Cd144      Cd  0.59407279  0.19108869  0.12327835     1.37500
O145        O  0.65275411  0.12842731  0.08368701    -0.56700
O146        O  0.67609142  0.22709832  0.14125665    -0.55500
C147        C  0.48626198  0.20085265  0.11094667     0.78200
O148        O  0.62635466  0.28180507  0.10837166    -0.57900
O149        O  0.59838477  0.16772512  0.04134339    -0.56400
O150        O  0.58091191  0.21531189  0.20197277    -0.56300
O151        O  0.50655503  0.15751589  0.11884985    -0.55500
O152        O  0.86136581  0.35110212  0.19894827    -0.56700
C153        C  0.84306065  0.30583208  0.04632031     0.75900
O154        O  0.71220262  0.35375576  0.10891846    -0.57900
C155        C  0.82718762  0.36957729  0.22595562     0.75900
C156        C  0.80571606  0.47647273  0.10485547     0.78300
Cd157      Cd  0.80571675  0.36800750  0.12555671     1.37500
O158        O  0.81532622  0.28971773  0.07963593    -0.56700
O159        O  0.84673109  0.45199612  0.11090591    -0.55500
C160        C  0.71272292  0.30904075  0.12727050     0.78200
O161        O  0.76432854  0.44992345  0.10386638    -0.57900
O162        O  0.86120367  0.35142247  0.05187019    -0.56400
O163        O  0.78837987  0.38742160  0.20607967    -0.56300
O164        O  0.75394486  0.29526162  0.14606291    -0.55500
O165        O  0.12117436  0.73475885  0.08177623    -0.56700
C166        C  0.10230239  0.65636302  0.22924006     0.75900
O167        O  0.15999908  0.57565787  0.10014708    -0.57900
C168        C  0.08739600  0.72173194  0.05225557     0.75900
C169        C  0.21744646  0.71487071  0.13130411     0.78300
Cd170      Cd  0.12338818  0.65764240  0.12850735     1.37500
O171        O  0.07001782  0.67796634  0.20279941    -0.56700
O172        O  0.17722792  0.72700118  0.15321496    -0.55500
C173        C  0.11768550  0.55073351  0.10109283     0.78200
O174        O  0.21709332  0.67148913  0.10954387    -0.57900
O175        O  0.13895814  0.63433718  0.20870985    -0.56400
O176        O  0.06370636  0.67947917  0.06085846    -0.56300
O177        O  0.07800486  0.57624394  0.11078583    -0.55500
O178        O  0.27142965  0.89987156  0.09260788    -0.56700
C179        C  0.33394701  0.85769541  0.22841680     0.75900
O180        O  0.30203816  0.74598131  0.10934435    -0.57900
C181        C  0.28904805  0.89368790  0.05141848     0.75900
C182        C  0.43956695  0.82834416  0.11732686     0.78300
Cd183      Cd  0.33205933  0.83773807  0.12936013     1.37500
O184        O  0.32354166  0.89540659  0.20192235    -0.56700
O185        O  0.41888777  0.87113469  0.12724044    -0.55500
C186        C  0.25958077  0.75291162  0.12997580     0.78200
O187        O  0.41012509  0.78945987  0.11002100    -0.57900
O188        O  0.34470444  0.81532820  0.20853871    -0.56400
O189        O  0.33022629  0.86888269  0.04900969    -0.56300
O190        O  0.25292388  0.79669399  0.14886078    -0.55500
O191        O  0.10517936  0.30675961  0.06542914    -0.56700
C192        C  0.09390103  0.38720253  0.21415948     0.75900
O193        O  0.20827821  0.37381825  0.09805804    -0.57900
C194        C  0.07616857  0.32062949  0.03271719     0.75900
C195        C  0.11519221  0.49407782  0.09677679     0.78300
Cd196      Cd  0.11362216  0.38521197  0.11292824     1.37500
O197        O  0.05983802  0.36612213  0.18789295    -0.56700
O198        O  0.07368507  0.46934764  0.10449722    -0.55500
C199        C  0.20755116  0.33098691  0.11982594     0.78200
O200        O  0.15506438  0.46761665  0.09010415    -0.57900
O201        O  0.13170091  0.40749649  0.19330849    -0.56400
O202        O  0.05669789  0.36485416  0.03916959    -0.56300
O203        O  0.16575493  0.31710271  0.13868153    -0.55500
O204        O  0.25836186  0.15601649  0.08088576    -0.56700
C205        C  0.32572549  0.20001507  0.22099824     0.75900
O206        O  0.40882647  0.24897502  0.10455402    -0.57900
C207        C  0.27963459  0.16194037  0.04104694     0.75900
C208        C  0.25048754  0.29540607  0.12169302     0.78300
Cd209      Cd  0.32262049  0.21348837  0.12243785     1.37500
O210        O  0.31061380  0.16175433  0.19568332    -0.56700
O211        O  0.24210052  0.25059654  0.13763090    -0.55500
C212        C  0.43046657  0.20581980  0.11101920     0.78200
O213        O  0.29539983  0.30545151  0.10648943    -0.57900
O214        O  0.33924317  0.24108179  0.20019412    -0.56400
O215        O  0.32296297  0.18453220  0.04169802    -0.56300
O216        O  0.40191415  0.16693938  0.12015125    -0.55500
C217        C  0.93862558  0.24758139  0.03965671    -0.00800
C218        C  0.90614591  0.25180300  0.99973311     0.08900
C219        C  0.92952485  0.24235423  0.45619525    -0.00900
C220        C  0.98210624  0.25319527  0.44993362    -0.00900
C221        C  0.01398669  0.26194051  0.98947193     0.09100
C222        C  0.99212617  0.24714366  0.03332812    -0.01100
Br223      Br  0.03407203  0.21925387  0.08267328     0.00400
Br224      Br  0.91233122  0.23490566  0.10236785     0.00300
Br225      Br  0.00841651  0.24830113  0.38627515     0.00400
Br226      Br  0.89076532  0.20913124  0.40599704     0.00400
C227        C  0.76384082  0.14398529  0.01830839    -0.00800
C228        C  0.71549368  0.15968459  0.00139284     0.08900
C229        C  0.71086755  0.21483384  0.49506494    -0.00900
C230        C  0.75349375  0.24901986  0.49897264    -0.00900
C231        C  0.80466928  0.23005210  0.00276195     0.09100
C232        C  0.80861859  0.17579519  0.01248521    -0.01100
Br233      Br  0.87261647  0.14066859  0.01925548     0.00400
Br234      Br  0.76817005  0.08515356  0.05957039     0.00300
Br235      Br  0.73880470  0.32357076  0.50070603     0.00400
Br236      Br  0.64568446  0.24864653  0.48638908    -0.01200
C237        C  0.62666808  0.97641408  0.50899793    -0.00800
C238        C  0.67281210  0.94904425  0.49898850     0.08900
C239        C  0.71078154  0.97862436  0.97408655    -0.00900
C240        C  0.70877656  0.03399953  0.97243245    -0.00900
C241        C  0.66943629  0.06174230  0.99638564     0.09100
C242        C  0.62529319  0.03100983  0.00860533    -0.01100
Br243      Br  0.55785852  0.06129683  0.01706415     0.00400
Br244      Br  0.56037247  0.94075241  0.51394280     0.00300
Br245      Br  0.75630740  0.06969570  0.93104941     0.00400
Br246      Br  0.76146681  0.94480352  0.93529715     0.00400
C247        C  0.81478435  0.83993180  0.01655922    -0.00800
C248        C  0.81078076  0.78533831  0.50487180     0.08900
C249        C  0.75965020  0.76496482  0.49900984    -0.00900
C250        C  0.71675450  0.79749970  0.49839845    -0.00900
C251        C  0.72148172  0.85291796  0.50455522     0.09100
C252        C  0.77005212  0.87071740  0.02126093    -0.01100
Br253      Br  0.77416633  0.93279112  0.06009085     0.00400
Br254      Br  0.87846131  0.87735114  0.02734417     0.00300
Br255      Br  0.65106562  0.76051730  0.49626458     0.00400
Br256      Br  0.74499166  0.68989769  0.49472532     0.00400
C257        C  0.94023940  0.78609470  0.46967101    -0.00800
C258        C  0.91228615  0.76737693  0.00978351     0.08900
C259        C  0.93804481  0.77042114  0.05404653    -0.00900
C260        C  0.99187321  0.77388181  0.05570556    -0.00900
C261        C  0.02090761  0.77600790  0.01315321     0.09100
C262        C  0.99401772  0.79288583  0.47233856    -0.01100
Br263      Br  0.02904743  0.83420055  0.42524945     0.00400
Br264      Br  0.90625597  0.81023008  0.41396130     0.00300
Br265      Br  0.02362090  0.78626027  0.11680550     0.00400
Br266      Br  0.90119705  0.78063825  0.11286034     0.00400
C267        C  0.15748773  0.16277705  0.47026379    -0.00800
C268        C  0.20423777  0.17977440  0.99024426     0.08900
C269        C  0.20864612  0.23529525  0.99609983    -0.00900
C270        C  0.16599317  0.26766365  0.99152774    -0.00900
C271        C  0.11514579  0.24647824  0.98651120     0.09100
C272        C  0.11214649  0.19196330  0.47578422    -0.01100
Br273      Br  0.04943249  0.15298539  0.46520414     0.00400
Br274      Br  0.15660708  0.10822619  0.42309224     0.00300
Br275      Br  0.18002190  0.34292275  0.99044348     0.00400
Br276      Br  0.27352518  0.27261830  0.00336294     0.00400
C277        C  0.17350705  0.78151727  0.50048070    -0.00800
C278        C  0.12227255  0.79850377  0.00843152     0.08900
C279        C  0.11856085  0.85142407  0.02450311    -0.00900
C280        C  0.16324615  0.88323810  0.03129256    -0.00900
C281        C  0.21053366  0.87093448  0.00955229     0.09100
C282        C  0.21594229  0.81665637  0.49996833    -0.01100
Br283      Br  0.28271938  0.78444475  0.49612150     0.00400
Br284      Br  0.19007519  0.70786413  0.49796629     0.00300
Br285      Br  0.16100553  0.93568169  0.08050172     0.00400
Br286      Br  0.05517437  0.88505913  0.03986829     0.00400
C287        C  0.20817101  0.05230469  0.00634246    -0.00800
C288        C  0.25241971  0.08366032  0.99840423     0.08900
C289        C  0.29993405  0.05644070  0.49848383    -0.00900
C290        C  0.30106016  0.00216853  0.50643047    -0.00900
C291        C  0.25511337  0.97047080  0.00561865     0.09100
C292        C  0.20943336  0.99824883  0.99803183    -0.01100
Br293      Br  0.15373541  0.97075505  0.96075802     0.00400
Br294      Br  0.15075463  0.07622834  0.04259580     0.00300
Br295      Br  0.36838220  0.97286177  0.51494530     0.00400
Br296      Br  0.36596144  0.09149704  0.49027649     0.00400
C297        C  0.25901830  0.90954161  0.50714040    -0.01400
C298        C  0.25371735  0.14507824  0.49514961    -0.01400
C299        C  0.85658760  0.74475034  0.00502379    -0.01400
C300        C  0.07676626  0.75619904  0.50913954    -0.01400
C301        C  0.67204102  0.88762717  0.00219001    -0.01400
C302        C  0.66608206  0.12304622  0.49807828    -0.01400
O303        O  0.86438958  0.66276293  0.80446823    -0.56700
C304        C  0.85224638  0.71137443  0.95908181     0.75900
O305        O  0.71449733  0.65658316  0.89349932    -0.57900
C306        C  0.82923161  0.64343757  0.77840707     0.75900
C307        C  0.81144204  0.53653178  0.89859969     0.78300
Cd308      Cd  0.81031120  0.64634212  0.87995089     1.37500
O309        O  0.83090666  0.72859977  0.92280927    -0.56700
O310        O  0.85144423  0.56198299  0.88705452    -0.55500
C311        C  0.71583644  0.70160388  0.87574286     0.78200
O312        O  0.77136683  0.56249158  0.90628590    -0.57900
O313        O  0.86185679  0.66339411  0.95664894    -0.56400
O314        O  0.79057922  0.62520683  0.79951135    -0.56300
O315        O  0.75824845  0.71716612  0.85937917    -0.55500
O316        O  0.66354586  0.87737113  0.91672497    -0.56700
C317        C  0.59842504  0.83386661  0.77813809     0.75900
O318        O  0.62796215  0.72701796  0.89060293    -0.57900
C319        C  0.64386676  0.87094386  0.95713440     0.75900
C320        C  0.49282488  0.82958492  0.88941316     0.78300
Cd321      Cd  0.60035055  0.81975729  0.87654628     1.37500
O322        O  0.61520789  0.87125391  0.80363071    -0.56700
O323        O  0.52155711  0.86742299  0.87756972    -0.55500
C324        C  0.67285375  0.73745041  0.87551634     0.78200
O325        O  0.51414494  0.78658962  0.89741221    -0.57900
O326        O  0.58182833  0.79377246  0.79877929    -0.56400
O327        O  0.60077794  0.84791946  0.95779008    -0.56300
O328        O  0.68119612  0.78288069  0.86107868    -0.55500
O329        O  0.60556978  0.13500723  0.79844885    -0.56700
C330        C  0.63829446  0.13675087  0.95236801     0.75900
O331        O  0.62740615  0.28358830  0.88561122    -0.57900
C332        C  0.59213959  0.17288438  0.77329492     0.75900
C333        C  0.48974469  0.20069457  0.88369817     0.78300
Cd334      Cd  0.59728062  0.19084326  0.87207793     1.37500
O335        O  0.66061423  0.13567241  0.91279123    -0.56700
O336        O  0.51001785  0.15877643  0.87017546    -0.55500
C337        C  0.67180025  0.27411082  0.86990568     0.78200
O338        O  0.51965218  0.23796488  0.89554811    -0.57900
O339        O  0.59338471  0.15418049  0.95192755    -0.56400
O340        O  0.58054629  0.21421637  0.79443854    -0.56300
O341        O  0.67937532  0.22867058  0.85498623    -0.55500
O342        O  0.81310344  0.29168703  0.92548588    -0.56700
C343        C  0.82796778  0.37014922  0.77790967     0.75900
O344        O  0.71393441  0.35516248  0.89161409    -0.57900
C345        C  0.84281270  0.30625812  0.95802444     0.75900
C346        C  0.81095249  0.47931064  0.89833134     0.78300
Cd347      Cd  0.80839785  0.36940761  0.87845409     1.37500
O348        O  0.86204714  0.35026766  0.80371149    -0.56700
O349        O  0.85072404  0.45458048  0.88710105    -0.55500
C350        C  0.71478538  0.31131323  0.87066962     0.78200
O351        O  0.77033830  0.45258259  0.90518381    -0.57900
O352        O  0.79052909  0.38990531  0.79904587    -0.56400
O353        O  0.86423240  0.35017894  0.95154555    -0.56300
O354        O  0.75661104  0.29817115  0.85208605    -0.55500
O355        O  0.08243001  0.73885449  0.92355647    -0.56700
C356        C  0.10171572  0.65868990  0.78129404     0.75900
O357        O  0.21491972  0.67822951  0.89247148    -0.57900
C358        C  0.08098809  0.72074087  0.96467713     0.75900
C359        C  0.11569495  0.55212006  0.89621858     0.78300
Cd360      Cd  0.11973448  0.66226758  0.88239552     1.37500
O361        O  0.06669364  0.67750855  0.80724922    -0.56700
O362        O  0.07521940  0.57778137  0.89030415    -0.55500
C363        C  0.21138530  0.72504694  0.87970473     0.78200
O364        O  0.15726606  0.57793833  0.90095839    -0.57900
O365        O  0.14020408  0.64167847  0.80233008    -0.56400
O366        O  0.08830255  0.67229221  0.96638234    -0.56300
O367        O  0.16763222  0.73995357  0.86797274    -0.55500
O368        O  0.32315020  0.89923047  0.80525076    -0.56700
C369        C  0.28701686  0.89604778  0.96094993     0.75900
O370        O  0.29982012  0.75196647  0.88990816    -0.57900
C371        C  0.33272094  0.85955610  0.77993364     0.75900
C372        C  0.43707616  0.83529665  0.89069907     0.78300
Cd373      Cd  0.32920193  0.84487938  0.87914822     1.37500
O374        O  0.26579972  0.90082218  0.92122252    -0.56700
O375        O  0.41700333  0.87781279  0.87942739    -0.55500
C376        C  0.25404284  0.76261011  0.87938057     0.78200
O377        O  0.40691271  0.79772709  0.90044251    -0.57900
O378        O  0.33126987  0.87699055  0.95990138    -0.56400
O379        O  0.34051608  0.81774085  0.80101213    -0.56300
O380        O  0.24519341  0.80904054  0.86916888    -0.55500
O381        O  0.06202257  0.36649867  0.79249757    -0.56700
C382        C  0.07651235  0.32072048  0.94419520     0.75900
O383        O  0.20991173  0.37547193  0.88603021    -0.57900
C384        C  0.09524869  0.38826112  0.76616820     0.75900
C385        C  0.11511993  0.49505649  0.89278033     0.78300
Cd386      Cd  0.11567876  0.38643815  0.86742957     1.37500
O387        O  0.05714920  0.36503347  0.93899485    -0.56700
O388        O  0.07402295  0.46959159  0.88489206    -0.55500
C389        C  0.21002530  0.33080191  0.86670169     0.78200
O390        O  0.15612604  0.46948166  0.89330458    -0.57900
O391        O  0.10598540  0.30693241  0.91136341    -0.56400
O392        O  0.13277688  0.40957429  0.78691777    -0.56300
O393        O  0.16949230  0.31621953  0.84598516    -0.55500
O394        O  0.31263791  0.16166428  0.79721972    -0.56700
C395        C  0.28343587  0.16035728  0.95065488     0.75900
O396        O  0.41185039  0.24783430  0.89313676    -0.57900
C397        C  0.32730599  0.19994064  0.77240491     0.75900
C398        C  0.25243040  0.29436414  0.86934846     0.78300
Cd399      Cd  0.32611787  0.21298115  0.87123596     1.37500
O400        O  0.26847721  0.14773174  0.90957877    -0.56700
O401        O  0.24465965  0.24839712  0.85515050    -0.55500
C402        C  0.43400194  0.20570671  0.88275777     0.78200
O403        O  0.29646626  0.30514673  0.88617375    -0.57900
O404        O  0.32188631  0.19069256  0.95255535    -0.56400
O405        O  0.34230538  0.24064726  0.79380140    -0.56300
O406        O  0.40603797  0.16790619  0.86900550    -0.55500
C407        C  0.85037753  0.27189438  0.00200534    -0.01400
C408        C  0.06891768  0.28565535  0.48845535    -0.01400
O409        O  0.81169194  0.71911137  0.57670979    -0.56700
C410        C  0.82882289  0.64268988  0.72620819     0.75900
O411        O  0.71456130  0.65583229  0.60783673    -0.57900
C412        C  0.84552708  0.70804379  0.54683350     0.75900
C413        C  0.80620076  0.53360077  0.60441351     0.78300
Cd414      Cd  0.80801444  0.64271572  0.62501389     1.37500
O415        O  0.86279796  0.66273370  0.69949518    -0.56700
O416        O  0.84769888  0.55908623  0.60993845    -0.55500
C417        C  0.71563543  0.69955677  0.62900597     0.78200
O418        O  0.76538316  0.55937672  0.60287607    -0.57900
O419        O  0.79048787  0.62255314  0.70582851    -0.56400
O420        O  0.86853152  0.66608045  0.55478154    -0.56300
O421        O  0.75671988  0.71271158  0.64962064    -0.55500
O422        O  0.61623396  0.87099062  0.70207100    -0.56700
C423        C  0.64421646  0.87165792  0.54772819     0.75900
O424        O  0.62995017  0.72743017  0.61095049    -0.57900
C425        C  0.59907526  0.83368471  0.72682479     0.75900
C426        C  0.49498541  0.82449000  0.61734930     0.78300
Cd427      Cd  0.60250559  0.81924959  0.62810442     1.37500
O428        O  0.66179319  0.88278676  0.58828480    -0.56700
O429        O  0.52267141  0.86360750  0.62824523    -0.55500
C430        C  0.67397370  0.73666024  0.62832967     0.78200
O431        O  0.51739252  0.78203888  0.60888431    -0.57900
O432        O  0.60458757  0.84287085  0.54713477    -0.56400
O433        O  0.58326195  0.79336022  0.70540213    -0.56300
O434        O  0.68248925  0.78167526  0.64460447    -0.55500
O435        O  0.60196842  0.13465374  0.69543828    -0.56700
C436        C  0.63732110  0.13958943  0.54282272     0.75900
O437        O  0.51646862  0.23971646  0.60602799    -0.57900
C438        C  0.59137552  0.17308665  0.72188596     0.75900
C439        C  0.66969866  0.27213585  0.62579646     0.78300
Cd440      Cd  0.59419285  0.19098356  0.62340788     1.37500
O441        O  0.65271882  0.12837386  0.58368700    -0.56700
O442        O  0.67617088  0.22711403  0.64127388    -0.55500
C443        C  0.48651531  0.20088772  0.61094150     0.78200
O444        O  0.62626462  0.28172222  0.60846412    -0.57900
O445        O  0.59844834  0.16793398  0.54143338    -0.56400
O446        O  0.58104923  0.21513174  0.70209533    -0.56300
O447        O  0.50672958  0.15744146  0.61853407    -0.55500
O448        O  0.86107163  0.35099172  0.69887328    -0.56700
C449        C  0.84278953  0.30604388  0.54647263     0.75900
O450        O  0.71199523  0.35379725  0.60880935    -0.57900
C451        C  0.82708685  0.36977657  0.72590686     0.75900
C452        C  0.80560315  0.47665843  0.60501030     0.78300
Cd453      Cd  0.80544586  0.36822345  0.62559425     1.37500
O454        O  0.81483222  0.29002939  0.57966508    -0.56700
O455        O  0.84658228  0.45213627  0.61110834    -0.55500
C456        C  0.71255784  0.30916668  0.62732990     0.78200
O457        O  0.76418505  0.45016104  0.60390190    -0.57900
O458        O  0.86106793  0.35157616  0.55207082    -0.56400
O459        O  0.78838042  0.38790551  0.70608026    -0.56300
O460        O  0.75373904  0.29556454  0.64630598    -0.55500
O461        O  0.12102830  0.73528961  0.58150921    -0.56700
C462        C  0.10198521  0.65718329  0.72921326     0.75900
O463        O  0.15997133  0.57639786  0.60025348    -0.57900
C464        C  0.08720746  0.72216572  0.55205718     0.75900
C465        C  0.21724738  0.71547903  0.63152868     0.78300
Cd466      Cd  0.12317116  0.65836313  0.62850997     1.37500
O467        O  0.06995030  0.67920348  0.70280097    -0.56700
O468        O  0.17717529  0.72740486  0.65376389    -0.55500
C469        C  0.11772928  0.55135046  0.60125059     0.78200
O470        O  0.21673305  0.67234920  0.60936504    -0.57900
O471        O  0.13837196  0.63474204  0.70865373    -0.56400
O472        O  0.06345348  0.67999963  0.56085059    -0.56300
O473        O  0.07799551  0.57675879  0.61099122    -0.55500
O474        O  0.27116135  0.90024321  0.59251866    -0.56700
C475        C  0.33398912  0.85820183  0.72843730     0.75900
O476        O  0.30158623  0.74675317  0.60910927    -0.57900
C477        C  0.28882174  0.89396613  0.55135284     0.75900
C478        C  0.43931143  0.82863989  0.61741855     0.78300
Cd479      Cd  0.33183573  0.83825399  0.62940783     1.37500
O480        O  0.32335276  0.89590120  0.70199904    -0.56700
O481        O  0.41871895  0.87144121  0.62746474    -0.55500
C482        C  0.25939312  0.75348213  0.63025116     0.78200
O483        O  0.40979292  0.78984938  0.60995661    -0.57900
O484        O  0.34482657  0.81588719  0.70850188    -0.56400
O485        O  0.33001145  0.86918144  0.54901617    -0.56300
O486        O  0.25298678  0.79704965  0.64963229    -0.55500
O487        O  0.10374949  0.30629687  0.56662949    -0.56700
C488        C  0.09488362  0.38796853  0.71399758     0.75900
O489        O  0.20899560  0.37434613  0.59763500    -0.57900
C490        C  0.07597050  0.32059832  0.53316914     0.75900
C491        C  0.11538605  0.49468017  0.59687797     0.78300
Cd492      Cd  0.11429230  0.38575816  0.61275853     1.37500
O493        O  0.06058057  0.36719054  0.68780663    -0.56700
O494        O  0.07403413  0.46980489  0.60494485    -0.55500
C495        C  0.20830551  0.33162311  0.61957347     0.78200
O496        O  0.15526721  0.46834993  0.58974253    -0.57900
O497        O  0.13280905  0.40792580  0.69307567    -0.56400
O498        O  0.05827449  0.36577176  0.53844099    -0.56300
O499        O  0.16655216  0.31785004  0.63853711    -0.55500
O500        O  0.25883086  0.15632135  0.58103806    -0.56700
C501        C  0.32622830  0.20016253  0.72108460     0.75900
O502        O  0.40925045  0.24923813  0.60487178    -0.57900
C503        C  0.28001331  0.16221250  0.54115337     0.75900
C504        C  0.25119999  0.29600204  0.62155818     0.78300
Cd505      Cd  0.32305242  0.21383088  0.62247816     1.37500
O506        O  0.31065099  0.16212026  0.69573605    -0.56700
O507        O  0.24277489  0.25132950  0.63778043    -0.55500
C508        C  0.43076246  0.20594896  0.61095920     0.78200
O509        O  0.29608203  0.30584008  0.60618983    -0.57900
O510        O  0.34022166  0.24108579  0.70029994    -0.56400
O511        O  0.32331560  0.18486202  0.54168836    -0.56300
O512        O  0.40212358  0.16702307  0.61970819    -0.55500
C513        C  0.93855035  0.24809057  0.54046374    -0.00800
C514        C  0.90612932  0.25184821  0.50041165     0.08900
C515        C  0.92950467  0.24307569  0.95538230    -0.00900
C516        C  0.98202644  0.25422816  0.94914194    -0.00900
C517        C  0.01395353  0.26138962  0.49024251     0.09100
C518        C  0.99201095  0.24710095  0.53416377    -0.01100
Br519      Br  0.03365203  0.21852287  0.58338966     0.00400
Br520      Br  0.91237944  0.23681333  0.60345266     0.00300
Br521      Br  0.00798039  0.25045070  0.88530234     0.00400
Br522      Br  0.89072914  0.21045027  0.90486223     0.00400
C523        C  0.76360607  0.14422669  0.51879399    -0.00800
C524        C  0.71542993  0.15984083  0.50138779     0.08900
C525        C  0.71087202  0.21469307  0.99524044    -0.00900
C526        C  0.75347650  0.24889332  0.99920622    -0.00900
C527        C  0.80463357  0.23016533  0.50298254     0.09100
C528        C  0.80845134  0.17603189  0.51329692    -0.01100
Br529      Br  0.87237818  0.14123557  0.52177336     0.00400
Br530      Br  0.76746319  0.08546786  0.56021521     0.00300
Br531      Br  0.73869754  0.32340689  0.00133150     0.00400
Br532      Br  0.64567377  0.24845003  0.98644427    -0.01200
C533        C  0.62678246  0.97624804  0.00909156    -0.00800
C534        C  0.67292570  0.94892060  0.99901225     0.08900
C535        C  0.71070481  0.97874863  0.47410102    -0.00900
C536        C  0.70880906  0.03414491  0.47255650    -0.00900
C537        C  0.66938354  0.06189481  0.49637492     0.09100
C538        C  0.62519870  0.03118096  0.50848099    -0.01100
Br539      Br  0.55777097  0.06155257  0.51676675     0.00400
Br540      Br  0.56051771  0.94051528  0.01411862     0.00300
Br541      Br  0.75662576  0.06990381  0.43149155     0.00400
Br542      Br  0.76117478  0.94492564  0.43508741     0.00400
C543        C  0.81468264  0.83995526  0.51582127    -0.00800
C544        C  0.81106960  0.78544292  0.00488262     0.08900
C545        C  0.76004800  0.76508045  0.99843197    -0.00900
C546        C  0.71709046  0.79753672  0.99798007    -0.00900
C547        C  0.72169233  0.85291460  0.00445168     0.09100
C548        C  0.77002087  0.87075670  0.52087744    -0.01100
Br549      Br  0.77459788  0.93276709  0.55969971     0.00400
Br550      Br  0.87853811  0.87764457  0.52456835     0.00300
Br551      Br  0.65145685  0.76044656  0.99595467     0.00400
Br552      Br  0.74552944  0.69006171  0.99373804     0.00400
C553        C  0.94036873  0.78716831  0.97054801    -0.00800
C554        C  0.91206431  0.76711038  0.50920094     0.08900
C555        C  0.93776724  0.77091592  0.55345218    -0.00900
C556        C  0.99161075  0.77437324  0.55516232    -0.00900
C557        C  0.02071632  0.77616822  0.51263881     0.09100
C558        C  0.99422262  0.79340035  0.97306883    -0.01100
Br559      Br  0.02944368  0.83472949  0.92610137     0.00400
Br560      Br  0.90611844  0.81348613  0.91584514     0.00300
Br561      Br  0.02330194  0.78705437  0.61623268     0.00400
Br562      Br  0.90081191  0.78191463  0.61205023     0.00400
C563        C  0.15738519  0.16283759  0.96958476    -0.00800
C564        C  0.20441360  0.17987398  0.49063226     0.08900
C565        C  0.20867986  0.23537573  0.49657233    -0.00900
C566        C  0.16586618  0.26759060  0.49237820    -0.00900
C567        C  0.11507874  0.24623423  0.48742249     0.09100
C568        C  0.11210317  0.19224930  0.97474026    -0.01100
Br569      Br  0.04928685  0.15384445  0.96309559     0.00400
Br570      Br  0.15665001  0.10805031  0.92262268     0.00300
Br571      Br  0.17963956  0.34287343  0.49144251     0.00400
Br572      Br  0.27354589  0.27284685  0.50329407     0.00400
C573        C  0.17365443  0.78125859  0.00080115    -0.00800
C574        C  0.12209709  0.79874871  0.50797774     0.08900
C575        C  0.11833002  0.85170635  0.52391801    -0.00900
C576        C  0.16299407  0.88350828  0.53088236    -0.00900
C577        C  0.21037889  0.87120315  0.50933510     0.09100
C578        C  0.21608228  0.81639154  0.00017798    -0.01100
Br579      Br  0.28285245  0.78417985  0.99616913     0.00400
Br580      Br  0.19022274  0.70760012  0.99825752     0.00300
Br581      Br  0.16058174  0.93576383  0.58023369     0.00400
Br582      Br  0.05487208  0.88544032  0.53879354     0.00400
C583        C  0.20839144  0.05266883  0.50670296    -0.00800
C584        C  0.25264570  0.08391902  0.49859289     0.08900
C585        C  0.29976702  0.05624847  0.99846558    -0.00900
C586        C  0.30098942  0.00197977  0.00643596    -0.00900
C587        C  0.25511188  0.97074620  0.50558574     0.09100
C588        C  0.20947427  0.99864981  0.49821446    -0.01100
Br589      Br  0.15370326  0.97153097  0.46083424     0.00400
Br590      Br  0.15158272  0.07659365  0.54375118     0.00300
Br591      Br  0.36836985  0.97272609  0.01479530     0.00400
Br592      Br  0.36578653  0.09137854  0.99044228     0.00400
loop_ 
_geom_bond_atom_site_label_1 
_geom_bond_atom_site_label_2 
_geom_bond_distance 
_geom_bond_site_symmetry_2 
_ccdc_geom_bond_type 
C1          C181   1.542       .  S
C1          C281   1.598       .  S
C1          C291   1.586       .  S
C1          C369   1.541   1_554  S
C2          C207   1.536   1_556  S
C2          C268   1.592       .  S
C2          C288   1.583       .  S
C2          C395   1.534       .  S
C3            C8   1.559       .  S
C3          C248   1.602       .  S
C3          C412   1.553       .  S
C3          C554   1.565       .  S
C4          C168   1.539       .  S
C4          C261   1.565       .  S
C4          C278   1.601       .  S
C4          C358   1.562   1_554  S
C5           C23   1.533       .  S
C5          C238   1.586       .  S
C5          C251   1.593       .  S
C5          C423   1.538       .  S
C6          C140   1.537   1_556  S
C6          C228   1.590   1_556  S
C6          C241   1.582       .  S
C6          C330   1.540       .  S
O7           C10   1.273       .  A
O7          Cd12   2.600       .  S
C8           O17   1.269       .  A
C8           O13   1.262       .  A
O9           C15   1.272       .  A
O9          Cd12   2.550       .  S
C10          O18   1.260       .  A
C10         C114   1.483       .  S
C11          O16   1.271       .  A
C11          O14   1.269       .  A
C11          C50   1.477       .  S
Cd12         O19   2.380       .  S
Cd12         O18   2.399       .  S
Cd12         O17   2.604       .  S
Cd12         O13   2.475       .  S
Cd12         O16   2.497       .  S
Cd12         O14   2.457       .  S
C15          O19   1.262       .  A
C15          C28   1.470       .  S
O20          C23   1.268       .  A
O20         Cd25   2.477       .  S
C21          O30   1.264       .  A
C21          O26   1.273       .  A
C21         C129   1.459       .  S
O22          C28   1.273       .  A
O22         Cd25   2.551       .  S
C23          O31   1.264       .  A
C24          O29   1.274       .  A
C24          O27   1.269       .  A
C24          C76   1.469       .  S
Cd25         O32   2.375       .  S
Cd25         O31   2.415       .  S
Cd25         O30   2.352       .  S
Cd25         O26   2.500       .  S
Cd25         O29   2.472       .  S
Cd25         O27   2.420       .  S
C28          O32   1.261       .  A
O33          C36   1.273       .  A
O33         Cd38   2.539       .  S
C34         C302   1.541       .  S
C34          O43   1.265       .  A
C34          O39   1.266       .  A
O35          C41   1.270       .  A
O35         Cd38   2.532       .  S
C36          O44   1.260       .  A
C36         C142   1.462       .  S
C37          O42   1.272       .  A
C37          O40   1.269       .  A
C37         C106   1.466       .  S
Cd38         O45   2.392       .  S
Cd38         O44   2.340       .  S
Cd38         O43   2.469       .  S
Cd38         O39   2.500       .  S
Cd38         O42   2.472       .  S
Cd38         O40   2.415       .  S
C41          O45   1.262       .  A
C41          C54   1.465       .  S
O46          C49   1.260       .  A
O46         Cd51   2.430       .  S
C47          O56   1.260       .  A
C47          O52   1.274       .  A
C47         C155   1.479       .  S
O48          C54   1.274       .  A
O48         Cd51   2.519       .  S
C49         C111   1.556       .  S
C49          O57   1.270       .  A
C50          O55   1.271       .  A
C50          O53   1.268       .  A
Cd51         O58   2.379       .  S
Cd51         O57   2.601       .  S
Cd51         O56   2.375       .  S
Cd51         O52   2.591       .  S
Cd51         O55   2.494       .  S
Cd51         O53   2.452       .  S
C54          O58   1.263       .  A
O59          C62   1.264       .  A
O59         Cd64   2.499       .  S
C60          O69   1.261       .  A
C60          O65   1.274       .  A
C60         C166   1.481       .  S
O61          C67   1.271       .  A
O61         Cd64   2.532       .  S
C62         C300   1.562       .  S
C62          O70   1.270       .  A
C63          O68   1.271       .  A
C63          O66   1.271       .  A
C63          C89   1.476       .  S
Cd64         O71   2.384       .  S
Cd64         O70   2.536       .  S
Cd64         O69   2.393       .  S
Cd64         O65   2.587       .  S
Cd64         O68   2.469       .  S
Cd64         O66   2.466       .  S
C67          O71   1.261       .  A
C67          C80   1.465       .  S
O72          C75   1.273       .  A
O72         Cd77   2.545       .  S
C73         C297   1.541       .  S
C73          O82   1.266       .  A
C73          O78   1.268       .  A
O74          C80   1.270       .  A
O74         Cd77   2.526       .  S
C75          O83   1.260       .  A
C75         C179   1.464       .  S
C76          O81   1.271       .  A
C76          O79   1.270       .  A
Cd77         O84   2.387       .  S
Cd77         O83   2.341       .  S
Cd77         O82   2.434       .  S
Cd77         O78   2.511       .  S
Cd77         O81   2.471       .  S
Cd77         O79   2.434       .  S
C80          O84   1.262       .  A
O85          C88   1.272       .  A
O85         Cd90   2.597       .  S
C86         C408   1.547       .  S
C86          O95   1.261       .  A
C86          O91   1.270       .  A
O87          C93   1.272       .  A
O87         Cd90   2.541       .  S
C88          O96   1.261       .  A
C88         C192   1.483       .  S
C89          O94   1.269       .  A
C89          O92   1.268       .  A
Cd90         O97   2.391       .  S
Cd90         O96   2.409       .  S
Cd90         O95   2.423       .  S
Cd90         O91   2.600       .  S
Cd90         O94   2.479       .  S
Cd90         O92   2.473       .  S
C93          O97   1.263       .  A
C93         C102   1.470       .  S
O98         C101   1.273       .  A
O98        Cd103   2.495       .  S
C99         C298   1.534       .  S
C99         O108   1.264       .  A
C99         O104   1.270       .  A
O100        C106   1.273       .  A
O100       Cd103   2.478       .  S
C101        O109   1.265       .  A
C101        C205   1.459       .  S
C102        O107   1.273       .  A
C102        O105   1.262       .  A
Cd103       O110   2.412       .  S
Cd103       O109   2.355       .  S
Cd103       O108   2.390       .  S
Cd103       O104   2.495       .  S
Cd103       O107   2.546       .  S
Cd103       O105   2.383       .  S
C106        O110   1.267       .  A
C111        C449   1.539       .  S
C111        C514   1.557       .  S
C111        C527   1.596       .  S
C112        C194   1.560   1_556  S
C112        C221   1.559       .  S
C112        C271   1.594       .  S
C112        C382   1.546       .  S
O113        C116   1.259       .  A
O113       Cd118   2.415       .  S
C114        O123   1.260       .  A
C114        O119   1.273       .  A
O115        C121   1.273       .  A
O115       Cd118   2.522       .  S
C116        C299   1.553       .  S
C116        O124   1.272       .  A
C117        O122   1.269       .  A
C117        O120   1.268       .  A
C117        C156   1.470       .  S
Cd118       O125   2.368       .  S
Cd118       O124   2.608       .  S
Cd118       O123   2.400       .  S
Cd118       O119   2.600       .  S
Cd118       O122   2.481       .  S
Cd118       O120   2.447       .  S
C121        O125   1.264       .  A
C121        C134   1.464       .  S
O126        C129   1.273       .  A
O126       Cd131   2.503       .  S
C127        C301   1.538       .  S
C127        O136   1.264       .  A
C127        O132   1.270       .  A
O128        C134   1.271       .  A
O128       Cd131   2.530       .  S
C129        O137   1.264       .  A
C130        O135   1.272       .  A
C130        O133   1.268       .  A
C130        C182   1.462       .  S
Cd131       O138   2.372       .  S
Cd131       O137   2.354       .  S
Cd131       O136   2.387       .  S
Cd131       O132   2.511       .  S
Cd131       O135   2.466       .  S
Cd131       O133   2.400       .  S
C134        O138   1.262       .  A
O139        C142   1.272       .  A
O139       Cd144   2.534       .  S
C140        O149   1.264       .  A
C140        O145   1.269       .  A
O141        C147   1.269       .  A
O141       Cd144   2.467       .  S
C142        O150   1.262       .  A
C143        O148   1.269       .  A
C143        O146   1.261       .  A
C143        C160   1.460       .  S
Cd144       O151   2.435       .  S
Cd144       O150   2.342       .  S
Cd144       O149   2.402       .  S
Cd144       O145   2.506       .  S
Cd144       O148   2.514       .  S
Cd144       O146   2.376       .  S
C147        O151   1.269       .  A
C147        C212   1.467       .  S
O152        C155   1.272       .  A
O152       Cd157   2.592       .  S
C153        C407   1.540       .  S
C153        O162   1.269       .  A
C153        O158   1.261       .  A
O154        C160   1.272       .  A
O154       Cd157   2.511       .  S
C155        O163   1.260       .  A
C156        O161   1.270       .  A
C156        O159   1.268       .  A
Cd157       O164   2.371       .  S
Cd157       O163   2.382       .  S
Cd157       O162   2.581       .  S
Cd157       O158   2.410       .  S
Cd157       O161   2.478       .  S
Cd157       O159   2.440       .  S
C160        O164   1.263       .  A
O165        C168   1.259       .  A
O165       Cd170   2.407       .  S
C166        O175   1.262       .  A
C166        O171   1.272       .  A
O167        C173   1.270       .  A
O167       Cd170   2.465       .  S
C168        O176   1.270       .  A
C169        O174   1.273       .  A
C169        O172   1.263       .  A
C169        C186   1.463       .  S
Cd170       O177   2.442       .  S
Cd170       O176   2.554       .  S
Cd170       O175   2.402       .  S
Cd170       O171   2.582       .  S
Cd170       O174   2.527       .  S
Cd170       O172   2.359       .  S
C173        O177   1.267       .  A
C173        C195   1.466       .  S
O178        C181   1.267       .  A
O178       Cd183   2.513       .  S
C179        O188   1.261       .  A
C179        O184   1.271       .  A
O180        C186   1.269       .  A
O180       Cd183   2.540       .  S
C181        O189   1.264       .  A
C182        O187   1.269       .  A
C182        O185   1.267       .  A
Cd183       O190   2.374       .  S
Cd183       O189   2.431       .  S
Cd183       O188   2.356       .  S
Cd183       O184   2.542       .  S
Cd183       O187   2.469       .  S
Cd183       O185   2.414       .  S
C186        O190   1.261       .  A
O191        C194   1.261       .  A
O191       Cd196   2.429       .  S
C192        O201   1.260       .  A
C192        O197   1.274       .  A
O193        C199   1.273       .  A
O193       Cd196   2.531       .  S
C194        O202   1.270       .  A
C195        O200   1.270       .  A
C195        O198   1.269       .  A
Cd196       O203   2.368       .  S
Cd196       O202   2.618       .  S
Cd196       O201   2.396       .  S
Cd196       O197   2.596       .  S
Cd196       O200   2.462       .  S
Cd196       O198   2.441       .  S
C199        O203   1.263       .  A
C199        C208   1.465       .  S
O204        C207   1.270       .  A
O204       Cd209   2.510       .  S
C205        O214   1.264       .  A
C205        O210   1.273       .  A
O206        C212   1.274       .  A
O206       Cd209   2.471       .  S
C207        O215   1.265       .  A
C208        O213   1.273       .  A
C208        O211   1.262       .  A
Cd209       O216   2.416       .  S
Cd209       O215   2.406       .  S
Cd209       O214   2.354       .  S
Cd209       O210   2.502       .  S
Cd209       O213   2.537       .  S
Cd209       O211   2.366       .  S
C212        O216   1.268       .  A
C217        C218   1.426   1_554  A
C217        C222   1.410       .  A
C217       Br224   1.938       .  S
C218        C407   1.558   1_556  S
C218        C515   1.417       .  A
C219        C220   1.409       .  A
C219        C514   1.417       .  A
C219       Br226   1.936       .  S
C220        C517   1.430   1_655  A
C220       Br225   1.938   1_655  S
C221        C222   1.423   1_456  A
C221        C516   1.431   1_455  A
C222       Br223   1.936   1_655  S
C227        C228   1.421       .  A
C227        C232   1.428       .  A
C227       Br234   1.934       .  S
C228        C525   1.440   1_554  A
C229        C230   1.412       .  A
C229        C524   1.440       .  A
C229       Br236   1.947       .  S
C230        C527   1.437       .  A
C230       Br235   1.969       .  S
C231        C407   1.596       .  S
C231        C232   1.436       .  A
C231        C526   1.437   1_554  A
C232       Br233   1.929       .  S
C237        C238   1.436       .  A
C237        C538   1.415   1_565  A
C237       Br244   1.953       .  S
C238        C535   1.432       .  A
C239        C240   1.433   1_565  A
C239        C534   1.431       .  A
C239       Br246   1.936       .  S
C240        C241   1.431       .  A
C240       Br245   1.936       .  S
C241        C242   1.432   1_556  A
C242        C533   1.415   1_545  A
C242       Br243   1.955       .  S
C247        C252   1.431       .  A
C247        C544   1.443       .  A
C247       Br254   1.933       .  S
C248        C249   1.437       .  A
C248        C543   1.442       .  A
C249        C250   1.414       .  A
C249       Br256   1.971       .  S
C250        C251   1.442       .  A
C250       Br255   1.950       .  S
C251        C548   1.419       .  A
C252        C547   1.420       .  A
C252       Br253   1.937       .  S
C257        C262   1.416       .  A
C257        C554   1.428       .  A
C257       Br264   1.933       .  S
C258        C299   1.565       .  S
C258        C259   1.430       .  A
C258        C553   1.427   1_554  A
C259        C260   1.409       .  A
C259       Br266   1.945       .  S
C260        C261   1.427   1_655  A
C260       Br265   1.948   1_655  S
C261        C558   1.419   1_454  A
C262        C557   1.419   1_655  A
C262       Br263   1.938   1_655  S
C267        C272   1.424       .  A
C267        C564   1.419       .  A
C267       Br274   1.934       .  S
C268        C269   1.443       .  A
C268        C563   1.420       .  A
C269        C270   1.413       .  A
C269       Br276   1.946   1_556  S
C270        C271   1.435       .  A
C270       Br275   1.971       .  S
C271        C568   1.436       .  A
C272        C567   1.437       .  A
C272       Br273   1.930       .  S
C277        C282   1.420       .  A
C277        C574   1.438       .  A
C277       Br284   1.958       .  S
C278        C279   1.441       .  A
C278        C573   1.438       .  A
C279        C280   1.428       .  A
C279       Br286   1.932       .  S
C280        C281   1.420       .  A
C280       Br285   1.938       .  S
C281        C578   1.440       .  A
C282        C577   1.440       .  A
C282       Br283   1.950       .  S
C287        C288   1.418   1_554  A
C287        C292   1.414   1_544  A
C287       Br294   1.926       .  S
C288        C585   1.437       .  A
C289        C290   1.422       .  A
C289        C584   1.437       .  A
C289       Br296   1.949       .  S
C290        C587   1.437   1_545  A
C290       Br295   1.945   1_545  S
C291        C292   1.423   1_554  A
C291        C586   1.437   1_565  A
C292       Br293   1.924       .  S
C297        C477   1.542       .  S
C297        C577   1.598       .  S
C297        C587   1.586       .  S
C298        C503   1.536       .  S
C298        C564   1.591       .  S
C298        C584   1.582       .  S
C299        C304   1.560   1_554  S
C299        C544   1.602       .  S
C300        C464   1.539       .  S
C300        C557   1.565       .  S
C300        C574   1.601       .  S
C301        C319   1.533   1_554  S
C301        C534   1.585   1_554  S
C301        C547   1.593       .  S
C302        C436   1.536       .  S
C302        C524   1.590       .  S
C302        C537   1.583       .  S
O303        C306   1.273       .  A
O303       Cd308   2.600       .  S
C304        O313   1.269       .  A
C304        O309   1.263       .  A
O305        C311   1.272       .  A
O305       Cd308   2.552       .  S
C306        O314   1.260       .  A
C306        C410   1.484       .  S
C307        O312   1.271       .  A
C307        O310   1.269       .  A
C307        C346   1.477       .  S
Cd308       O315   2.378       .  S
Cd308       O314   2.400       .  S
Cd308       O313   2.596       .  S
Cd308       O309   2.487       .  S
Cd308       O312   2.496       .  S
Cd308       O310   2.457       .  S
C311        O315   1.262       .  A
C311        C324   1.469       .  S
O316        C319   1.269       .  A
O316       Cd321   2.476       .  S
C317        O326   1.264       .  A
C317        O322   1.273       .  A
C317        C425   1.459       .  S
O318        C324   1.274       .  A
O318       Cd321   2.549       .  S
C319        O327   1.264       .  A
C320        O325   1.274       .  A
C320        O323   1.269       .  A
C320        C372   1.468       .  S
Cd321       O328   2.372       .  S
Cd321       O327   2.414       .  S
Cd321       O326   2.352       .  S
Cd321       O322   2.500       .  S
Cd321       O325   2.469       .  S
Cd321       O323   2.419       .  S
C324        O328   1.262       .  A
O329        C332   1.273       .  A
O329       Cd334   2.539       .  S
C330        O339   1.265       .  A
C330        O335   1.266       .  A
O331        C337   1.269       .  A
O331       Cd334   2.532       .  S
C332        O340   1.260       .  A
C332        C438   1.462       .  S
C333        O338   1.272       .  A
C333        O336   1.269       .  A
C333        C402   1.466       .  S
Cd334       O341   2.392       .  S
Cd334       O340   2.339       .  S
Cd334       O339   2.470       .  S
Cd334       O335   2.499       .  S
Cd334       O338   2.472       .  S
Cd334       O336   2.413       .  S
C337        O341   1.262       .  A
C337        C350   1.465       .  S
O342        C345   1.259       .  A
O342       Cd347   2.428       .  S
C343        O352   1.260       .  A
C343        O348   1.274       .  A
C343        C451   1.478       .  S
O344        C350   1.274       .  A
O344       Cd347   2.518       .  S
C345        C407   1.556   1_556  S
C345        O353   1.270       .  A
C346        O351   1.271       .  A
C346        O349   1.268       .  A
Cd347       O354   2.379       .  S
Cd347       O353   2.600       .  S
Cd347       O352   2.374       .  S
Cd347       O348   2.591       .  S
Cd347       O351   2.493       .  S
Cd347       O349   2.453       .  S
C350        O354   1.264       .  A
O355        C358   1.264       .  A
O355       Cd360   2.499       .  S
C356        O365   1.260       .  A
C356        O361   1.274       .  A
C356        C462   1.481       .  S
O357        C363   1.271       .  A
O357       Cd360   2.532       .  S
C358        O366   1.270       .  A
C359        O364   1.271       .  A
C359        O362   1.271       .  A
C359        C385   1.475       .  S
Cd360       O367   2.383       .  S
Cd360       O366   2.535       .  S
Cd360       O365   2.393       .  S
Cd360       O361   2.588       .  S
Cd360       O364   2.467       .  S
Cd360       O362   2.465       .  S
C363        O367   1.261       .  A
C363        C376   1.464       .  S
O368        C371   1.273       .  A
O368       Cd373   2.546       .  S
C369        O378   1.266       .  A
C369        O374   1.268       .  A
O370        C376   1.270       .  A
O370       Cd373   2.526       .  S
C371        O379   1.260       .  A
C371        C475   1.464       .  S
C372        O377   1.271       .  A
C372        O375   1.270       .  A
Cd373       O380   2.384       .  S
Cd373       O379   2.341       .  S
Cd373       O378   2.433       .  S
Cd373       O374   2.511       .  S
Cd373       O377   2.468       .  S
Cd373       O375   2.433       .  S
C376        O380   1.262       .  A
O381        C384   1.272       .  A
O381       Cd386   2.596       .  S
C382        O391   1.261       .  A
C382        O387   1.270       .  A
O383        C389   1.272       .  A
O383       Cd386   2.543       .  S
C384        O392   1.261       .  A
C384        C488   1.483       .  S
C385        O390   1.270       .  A
C385        O388   1.268       .  A
Cd386       O393   2.388       .  S
Cd386       O392   2.410       .  S
Cd386       O391   2.423       .  S
Cd386       O387   2.600       .  S
Cd386       O390   2.478       .  S
Cd386       O388   2.470       .  S
C389        O393   1.263       .  A
C389        C398   1.470       .  S
O394        C397   1.273       .  A
O394       Cd399   2.496       .  S
C395        O404   1.264       .  A
C395        O400   1.270       .  A
O396        C402   1.273       .  A
O396       Cd399   2.478       .  S
C397        O405   1.265       .  A
C397        C501   1.459       .  S
C398        O403   1.273       .  A
C398        O401   1.262       .  A
Cd399       O406   2.411       .  S
Cd399       O405   2.356       .  S
Cd399       O404   2.390       .  S
Cd399       O400   2.496       .  S
Cd399       O403   2.547       .  S
Cd399       O401   2.381       .  S
C402        O406   1.267       .  A
C408        C490   1.560       .  S
C408        C517   1.558       .  S
C408        C567   1.593       .  S
O409        C412   1.259       .  A
O409       Cd414   2.415       .  S
C410        O419   1.260       .  A
C410        O415   1.273       .  A
O411        C417   1.273       .  A
O411       Cd414   2.523       .  S
C412        O420   1.271       .  A
C413        O418   1.269       .  A
C413        O416   1.268       .  A
C413        C452   1.470       .  S
Cd414       O421   2.368       .  S
Cd414       O420   2.612       .  S
Cd414       O419   2.402       .  S
Cd414       O415   2.601       .  S
Cd414       O418   2.480       .  S
Cd414       O416   2.445       .  S
C417        O421   1.264       .  A
C417        C430   1.464       .  S
O422        C425   1.273       .  A
O422       Cd427   2.502       .  S
C423        O432   1.264       .  A
C423        O428   1.270       .  A
O424        C430   1.271       .  A
O424       Cd427   2.531       .  S
C425        O433   1.264       .  A
C426        O431   1.272       .  A
C426        O429   1.268       .  A
C426        C478   1.462       .  S
Cd427       O434   2.372       .  S
Cd427       O433   2.354       .  S
Cd427       O432   2.388       .  S
Cd427       O428   2.512       .  S
Cd427       O431   2.468       .  S
Cd427       O429   2.399       .  S
C430        O434   1.262       .  A
O435        C438   1.272       .  A
O435       Cd440   2.535       .  S
C436        O445   1.264       .  A
C436        O441   1.269       .  A
O437        C443   1.269       .  A
O437       Cd440   2.464       .  S
C438        O446   1.262       .  A
C439        O444   1.269       .  A
C439        O442   1.262       .  A
C439        C456   1.460       .  S
Cd440       O447   2.434       .  S
Cd440       O446   2.342       .  S
Cd440       O445   2.402       .  S
Cd440       O441   2.504       .  S
Cd440       O444   2.513       .  S
Cd440       O442   2.376       .  S
C443        O447   1.269       .  A
C443        C508   1.466       .  S
O448        C451   1.272       .  A
O448       Cd453   2.591       .  S
C449        O458   1.269       .  A
C449        O454   1.260       .  A
O450        C456   1.272       .  A
O450       Cd453   2.511       .  S
C451        O459   1.260       .  A
C452        O457   1.270       .  A
C452        O455   1.268       .  A
Cd453       O460   2.370       .  S
Cd453       O459   2.381       .  S
Cd453       O458   2.579       .  S
Cd453       O454   2.408       .  S
Cd453       O457   2.477       .  S
Cd453       O455   2.439       .  S
C456        O460   1.263       .  A
O461        C464   1.259       .  A
O461       Cd466   2.407       .  S
C462        O471   1.262       .  A
C462        O467   1.272       .  A
O463        C469   1.270       .  A
O463       Cd466   2.466       .  S
C464        O472   1.270       .  A
C465        O470   1.273       .  A
C465        O468   1.263       .  A
C465        C482   1.462       .  S
Cd466       O473   2.443       .  S
Cd466       O472   2.554       .  S
Cd466       O471   2.401       .  S
Cd466       O467   2.583       .  S
Cd466       O470   2.525       .  S
Cd466       O468   2.360       .  S
C469        O473   1.267       .  A
C469        C491   1.467       .  S
O474        C477   1.267       .  A
O474       Cd479   2.513       .  S
C475        O484   1.262       .  A
C475        O480   1.271       .  A
O476        C482   1.269       .  A
O476       Cd479   2.538       .  S
C477        O485   1.264       .  A
C478        O483   1.269       .  A
C478        O481   1.267       .  A
Cd479       O486   2.374       .  S
Cd479       O485   2.430       .  S
Cd479       O484   2.354       .  S
Cd479       O480   2.542       .  S
Cd479       O483   2.469       .  S
Cd479       O481   2.413       .  S
C482        O486   1.261       .  A
O487        C490   1.261       .  A
O487       Cd492   2.434       .  S
C488        O497   1.260       .  A
C488        O493   1.274       .  A
O489        C495   1.273       .  A
O489       Cd492   2.534       .  S
C490        O498   1.270       .  A
C491        O496   1.270       .  A
C491        O494   1.269       .  A
Cd492       O499   2.366       .  S
Cd492       O498   2.615       .  S
Cd492       O497   2.396       .  S
Cd492       O493   2.595       .  S
Cd492       O496   2.462       .  S
Cd492       O494   2.441       .  S
C495        O499   1.263       .  A
C495        C504   1.465       .  S
O500        C503   1.270       .  A
O500       Cd505   2.508       .  S
C501        O510   1.264       .  A
C501        O506   1.273       .  A
O502        C508   1.274       .  A
O502       Cd505   2.468       .  S
C503        O511   1.265       .  A
C504        O509   1.273       .  A
C504        O507   1.262       .  A
Cd505       O512   2.414       .  S
Cd505       O511   2.408       .  S
Cd505       O510   2.356       .  S
Cd505       O506   2.503       .  S
Cd505       O509   2.538       .  S
Cd505       O507   2.365       .  S
C508        O512   1.268       .  A
C513        C514   1.427       .  A
C513        C518   1.409       .  A
C513       Br520   1.938       .  S
C515        C516   1.409       .  A
C515       Br522   1.936       .  S
C516       Br521   1.938   1_655  S
C517        C518   1.422   1_455  A
C518       Br519   1.936   1_655  S
C523        C524   1.421       .  A
C523        C528   1.428       .  A
C523       Br530   1.934       .  S
C525        C526   1.412       .  A
C525       Br532   1.947       .  S
C526       Br531   1.969   1_556  S
C527        C528   1.436       .  A
C528       Br529   1.929       .  S
C533        C534   1.435   1_554  A
C533       Br540   1.953       .  S
C535        C536   1.433   1_565  A
C535       Br542   1.936       .  S
C536        C537   1.431       .  A
C536       Br541   1.936       .  S
C537        C538   1.432       .  A
C538       Br539   1.955       .  S
C543        C548   1.431       .  A
C543       Br550   1.932       .  S
C544        C545   1.436   1_554  A
C545        C546   1.414       .  A
C545       Br552   1.969       .  S
C546        C547   1.442   1_556  A
C546       Br551   1.950       .  S
C548       Br549   1.936       .  S
C553        C558   1.416       .  A
C553       Br560   1.933       .  S
C554        C555   1.429       .  A
C555        C556   1.410       .  A
C555       Br562   1.944       .  S
C556        C557   1.427   1_655  A
C556       Br561   1.948   1_655  S
C558       Br559   1.938   1_655  S
C563        C568   1.425       .  A
C563       Br570   1.934       .  S
C564        C565   1.443       .  A
C565        C566   1.413       .  A
C565       Br572   1.946       .  S
C566        C567   1.435       .  A
C566       Br571   1.970       .  S
C568       Br569   1.930       .  S
C573        C578   1.420       .  A
C573       Br580   1.958   1_554  S
C574        C575   1.440       .  A
C575        C576   1.428       .  A
C575       Br582   1.932       .  S
C576        C577   1.420       .  A
C576       Br581   1.937       .  S
C578       Br579   1.950   1_554  S
C583        C584   1.418       .  A
C583        C588   1.413   1_545  A
C583       Br590   1.925       .  S
C585        C586   1.422   1_556  A
C585       Br592   1.949       .  S
C586       Br591   1.946   1_545  S
C587        C588   1.422       .  A
C588       Br589   1.924       .  S
