geometry optimzed in LAMMPS
_audit_creation_date              2020-11-30 
_audit_creation_method            'lammps2cif' 
_symmetry_space_group_name_H-M    'P1' 
_symmetry_Int_Tables_number       1 
_symmetry_cell_setting            triclinic 
loop_ 
_symmetry_equiv_pos_as_xyz 
  x,y,z 
_cell_length_a                    30.52437243 
_cell_length_b                    30.46937708155184 
_cell_length_c                    30.510404083351364 
_cell_angle_alpha                 88.9952875695341 
_cell_angle_beta                  89.46672726182425 
_cell_angle_gamma                 90.92321082792543 
loop_ 
_atom_site_label 
_atom_site_type_symbol 
_atom_site_fract_x 
_atom_site_fract_y 
_atom_site_fract_z 
_atom_site_charge 
O1          O  0.54928756  0.05907820  0.86840127    -0.87400
O2          O  0.54623826  0.05921376  0.62369054    -0.87600
O3          O  0.63283086  0.04322906  0.73284944    -0.89200
O4          O  0.53688740  0.14460014  0.75629931    -0.88000
O5          O  0.46184666  0.14534049  0.75787894    -0.87600
O6          O  0.63050010  0.96797223  0.73515770    -0.89000
O7          O  0.57951188  0.10080085  0.67589420    -0.87400
O8          O  0.58716562  0.09338212  0.81173401    -0.87000
Zr9        Zr  0.55745823  0.06872063  0.74460710     2.84300
O10         O  0.49490854  0.07100332  0.70075393    -1.09000
O11         O  0.55725091  0.00792983  0.79252638    -1.09700
C12         C  0.57932271  0.08568291  0.85247102     1.05700
C13         C  0.57288555  0.09030156  0.63604733     1.05600
C14         C  0.65084437  0.00523364  0.72939762     1.08600
C15         C  0.50003719  0.16398073  0.76194549     1.06400
H16         H  0.57923537  0.00602619  0.68237227     0.32000
O17         O  0.55430747  0.00659837  0.70183024    -1.30000
H18         H  0.49741791  0.09351487  0.80933401     0.31600
O19         O  0.49608214  0.06840405  0.79062847    -1.31600
O20         O  0.44598874  0.95179885  0.62305387    -0.87400
O21         O  0.43807756  0.95954926  0.87363100    -0.88900
O22         O  0.57624146  0.91528734  0.68208834    -0.87500
O23         O  0.41282616  0.10387021  0.67951140    -0.87500
O24         O  0.40967828  0.09644887  0.81697143    -0.87200
O25         O  0.58805639  0.92721856  0.81855969    -0.87000
O26         O  0.45259728  0.86891522  0.75965841    -0.87400
O27         O  0.35336370  0.97357969  0.74329264    -0.86900
O28         O  0.52756241  0.87061054  0.75674034    -0.87900
O29         O  0.35608969  0.04867250  0.74076309    -0.87100
O30         O  0.54379103  0.95462878  0.62634333    -0.87500
O31         O  0.54969078  0.96085497  0.87331791    -0.87200
O32         O  0.44865048  0.06352503  0.87235300    -0.86900
O33         O  0.44095231  0.06163166  0.62455988    -0.87300
O34         O  0.40834386  0.91376817  0.67776151    -0.87600
O35         O  0.39733966  0.92274088  0.82270944    -0.88900
Zr36       Zr  0.49227415  0.00766483  0.65795071     2.83100
Zr37       Zr  0.49446199  0.00783764  0.83790859     2.83500
Zr38       Zr  0.55379167  0.94593099  0.74950911     2.84100
Zr39       Zr  0.43371186  0.07018988  0.74743705     2.83400
Zr40       Zr  0.42806093  0.94487408  0.75021196     2.84200
O41         O  0.43128295  0.00792951  0.79368822    -1.09500
O42         O  0.49104229  0.94604402  0.70568955    -1.09000
C43         C  0.41903165  0.92110485  0.63679156     1.05700
C44         C  0.40709765  0.93205587  0.86287287     1.08300
C45         C  0.56931337  0.92439286  0.64166781     1.05800
C46         C  0.41750121  0.09378910  0.63912823     1.06200
C47         C  0.42004327  0.09078866  0.85738056     1.05800
C48         C  0.58091599  0.93626723  0.85903287     1.05300
C49         C  0.49046722  0.85037190  0.76191525     1.05800
C50         C  0.33497816  0.01156172  0.73908283     1.05300
H51         H  0.49124615  0.92000991  0.81445328     0.32000
O52         O  0.49127683  0.94517579  0.79477935    -1.30600
H53         H  0.40504771  0.00790835  0.68527111     0.32000
O54         O  0.43043314  0.00746917  0.70389082    -1.32000
C55         C  0.64703914  0.21072616  0.49874699    -0.03400
O56         O  0.58085360  0.11665316  0.31333294    -0.87400
O57         O  0.41516300  0.92641022  0.32477314    -0.87600
O58         O  0.44932915  0.06835812  0.37068454    -0.89200
O59         O  0.55110051  0.96640068  0.37203133    -0.88000
O60         O  0.58272815  0.92499175  0.31910350    -0.87600
O61         O  0.40872976  0.10397473  0.31910816    -0.89000
O62         O  0.44914512  0.96740637  0.37750879    -0.87400
O63         O  0.54939381  0.07582852  0.36981145    -0.87000
Zr64       Zr  0.50042078  0.01882350  0.33798931     2.84300
O65         O  0.49932138  0.95456691  0.29647961    -1.09000
O66         O  0.49770041  0.08077289  0.29087940    -1.09700
C67         C  0.57414533  0.10786853  0.35441737     1.05700
C68         C  0.42264766  0.93638601  0.36485606     1.05600
C69         C  0.41879931  0.09456576  0.35920355     1.08600
C70         C  0.57605956  0.93471007  0.35950855     1.06400
H71         H  0.41223512  0.01618072  0.31424935     0.32000
O72         O  0.43737949  0.01700282  0.29483311    -1.30000
H73         H  0.58737655  0.02169279  0.31046710     0.31600
O74         O  0.56179875  0.02076306  0.29213131    -1.31600
O75         O  0.40592492  0.92570791  0.18734720    -0.87400
O76         O  0.59055596  0.10047890  0.17234964    -0.88900
O77         O  0.35889591  0.05229249  0.25743306    -0.87500
O78         O  0.53682507  0.88173671  0.23783104    -0.87500
O79         O  0.63616436  0.98411857  0.25389881    -0.87200
O80         O  0.45796662  0.15462328  0.23982797    -0.87000
O81         O  0.44470689  0.06901525  0.12414048    -0.87400
O82         O  0.54679916  0.96888828  0.12715420    -0.86900
O83         O  0.40434358  0.10334945  0.17676754    -0.87900
O84         O  0.58708282  0.93416426  0.17982437    -0.87100
O85         O  0.35992149  0.97730829  0.26014192    -0.87500
O86         O  0.53330014  0.15682407  0.23499557    -0.87200
O87         O  0.63586084  0.05925298  0.25033923    -0.86900
O88         O  0.46193878  0.87818708  0.24130275    -0.87300
O89         O  0.43985754  0.96506039  0.13121348    -0.87600
O90         O  0.54979189  0.06433982  0.12103343    -0.88900
Zr91       Zr  0.43637050  0.95374806  0.25305026     2.83100
Zr92       Zr  0.55965809  0.08239982  0.24487305     2.83500
Zr93       Zr  0.43403009  0.07880167  0.24799494     2.84100
Zr94       Zr  0.56037596  0.95751369  0.24966361     2.83400
Zr95       Zr  0.49475332  0.01790881  0.16017852     2.84200
O96         O  0.55829325  0.01921866  0.20301413    -1.09500
O97         O  0.43261851  0.01548310  0.20594542    -1.09000
C98         C  0.41194115  0.93586171  0.14678815     1.05700
C99         C  0.58166801  0.09036981  0.13236491     1.08300
C100        C  0.33990682  0.01433650  0.26263735     1.05800
C101        C  0.49992799  0.86073593  0.23476507     1.06200
C102        C  0.65544043  0.02220358  0.25519571     1.05800
C103        C  0.49518512  0.17451720  0.23401940     1.05300
C104        C  0.41455901  0.09584776  0.13625349     1.05800
C105        C  0.57624082  0.94168753  0.13980075     1.05300
H106        H  0.49577263  0.10564501  0.18214477     0.32000
O107        O  0.49607328  0.08074694  0.20212933    -1.30600
H108        H  0.49698382  0.93186789  0.18755334     0.32000
O109        O  0.49730275  0.95676980  0.20659808    -1.32000
C110        C  0.29885374  0.85842061  0.01454026    -0.03400
C111        C  0.68159892  0.85872090  0.00303523    -0.03400
C112        C  0.64529178  0.82075791  0.50476471    -0.03400
C113        C  0.30501922  0.16591842  0.98944290    -0.03400
C114        C  0.68993225  0.16665270  0.98363934    -0.03400
C115        C  0.33997386  0.19685233  0.50010864    -0.03400
C116        C  0.34606364  0.80937660  0.49402709    -0.03400
O117        O  0.85211787  0.76320387  0.46025496    -0.87400
O118        O  0.03165128  0.75017481  0.63191872    -0.87600
O119        O  0.90376282  0.68908449  0.58195046    -0.89200
O120        O  0.90564566  0.82817188  0.58598696    -0.88000
O121        O  0.94330468  0.88235161  0.54742504    -0.87600
O122        O  0.94462271  0.63553572  0.54944780    -0.89000
O123        O  0.95640843  0.75211881  0.63401778    -0.87400
O124        O  0.85516514  0.76621936  0.53497938    -0.87000
Zr125      Zr  0.93173215  0.75946735  0.55800790     2.84300
O126        O  0.99393653  0.80571103  0.55748634    -1.09000
O127        O  0.93026551  0.71378911  0.49688372    -1.09700
C128        C  0.83385604  0.76770851  0.49854132     1.05700
C129        C  0.99411257  0.74726170  0.65233783     1.05600
C130        C  0.91370308  0.64903830  0.57482822     1.08600
C131        C  0.91511458  0.86866429  0.57702353     1.06400
H132        H  0.99534591  0.69716534  0.58227485     0.32000
O133        O  0.99464302  0.71637355  0.55687084    -1.30000
H134        H  0.90561154  0.82106391  0.49512844     0.31600
O135        O  0.93111028  0.80278008  0.49444158    -1.31600
O136        O  0.13205022  0.77358077  0.52665361    -0.87400
O137        O  0.95286859  0.74778213  0.35622688    -0.88900
O138        O  0.05154814  0.64094681  0.54457937    -0.87500
O139        O  0.04378283  0.88590482  0.54385739    -0.87500
O140        O  0.93921523  0.88168690  0.44653824    -0.87200
O141        O  0.94042925  0.63221972  0.44871354    -0.87000
O142        O  0.08647629  0.69075277  0.41223014    -0.87400
O143        O  0.07392431  0.83327788  0.39603846    -0.86900
O144        O  0.04370386  0.63698700  0.44499634    -0.87900
O145        O  0.04158248  0.88590658  0.43809237    -0.87100
O146        O  0.09080591  0.69614265  0.57738452    -0.87500
O147        O  0.89884842  0.68434220  0.41419607    -0.87200
O148        O  0.90469081  0.82892156  0.40559001    -0.86900
O149        O  0.07906800  0.83269503  0.58373662    -0.87300
O150        O  0.13179109  0.77261730  0.45151022    -0.87600
O151        O  0.02820151  0.74752025  0.35412043    -0.88900
Zr152      Zr  0.05667705  0.76270604  0.55494935     2.83100
Zr153      Zr  0.92840883  0.75735003  0.43291635     2.83500
Zr154      Zr  0.99392418  0.67127962  0.49601465     2.84100
Zr155      Zr  0.99310731  0.84895734  0.49337566     2.83400
Zr156      Zr  0.05468433  0.76160088  0.42896783     2.84200
O157        O  0.99105504  0.80401265  0.43089969    -1.09500
O158        O  0.05594925  0.71797662  0.49309155    -1.09000
C159        C  0.15153077  0.77716967  0.48872901     1.05700
C160        C  0.99009653  0.74292141  0.33602621     1.08300
C161        C  0.08274725  0.65567355  0.56940639     1.05800
C162        C  0.07054408  0.87286022  0.57398482     1.06200
C163        C  0.91290917  0.86907797  0.41632937     1.05800
C164        C  0.90840545  0.64390143  0.42335922     1.05300
C165        C  0.07648285  0.65011618  0.42101441     1.05800
C166        C  0.06660801  0.87359427  0.40602338     1.05300
H167        H  0.99176876  0.69541406  0.40859152     0.32000
O168        O  0.99217415  0.71531393  0.43281379    -1.30600
H169        H  0.08032742  0.82635325  0.48991344     0.32000
O170        O  0.05548834  0.80637199  0.49106227    -1.32000
O171        O  0.85851904  0.24918208  0.46319604    -0.87400
O172        O  0.02990449  0.27209723  0.63974482    -0.87600
O173        O  0.90803749  0.19031259  0.59604689    -0.89200
O174        O  0.90363992  0.33339960  0.58300692    -0.88000
O175        O  0.94596299  0.38627888  0.54736606    -0.87600
O176        O  0.94345122  0.13727087  0.55762055    -0.89000
O177        O  0.95450936  0.27090914  0.63893262    -0.87400
O178        O  0.85639571  0.24652080  0.53833091    -0.87000
Zr179      Zr  0.93148316  0.26134382  0.56371717     2.84300
O180        O  0.99484513  0.30646011  0.56180896    -1.09000
O181        O  0.93177164  0.21686035  0.50231823    -1.09700
C182        C  0.83844183  0.24270873  0.50022797     1.05700
C183        C  0.99170770  0.27501379  0.65824899     1.05600
C184        C  0.91601419  0.14974304  0.58738800     1.08600
C185        C  0.91414420  0.37377254  0.57335892     1.06400
H186        H  0.99409712  0.20037526  0.59186487     0.32000
O187        O  0.99425588  0.21794885  0.56523853    -1.30000
H188        H  0.90693526  0.32365747  0.49931064     0.31600
O189        O  0.93294580  0.30606870  0.50014613    -1.31600
O190        O  0.13373736  0.25385294  0.54217709    -0.87400
O191        O  0.95978521  0.27270389  0.36386060    -0.88900
O192        O  0.04648213  0.13916741  0.55113159    -0.87500
O193        O  0.04897024  0.38905365  0.54558405    -0.87500
O194        O  0.94651422  0.38465979  0.44530916    -0.87200
O195        O  0.94012557  0.13799984  0.45270246    -0.87000
O196        O  0.08081632  0.18668567  0.41287695    -0.87400
O197        O  0.08846044  0.32631175  0.40961721    -0.86900
O198        O  0.04190641  0.13428449  0.45270929    -0.87900
O199        O  0.04805439  0.38025350  0.44152461    -0.87100
O200        O  0.08259185  0.19217517  0.59057860    -0.87500
O201        O  0.90712128  0.19224733  0.41214346    -0.87200
O202        O  0.90481922  0.33003584  0.41454165    -0.86900
O203        O  0.08789926  0.33659288  0.58292881    -0.87300
O204        O  0.13417252  0.24818953  0.46724801    -0.87600
O205        O  0.03496557  0.26997136  0.36301566    -0.88900
Zr206      Zr  0.05750466  0.26353323  0.56438109     2.83100
Zr207      Zr  0.93407333  0.26098169  0.43913785     2.83500
Zr208      Zr  0.99298445  0.17239347  0.50326558     2.84100
Zr209      Zr  0.99730705  0.35017343  0.49783505     2.83400
Zr210      Zr  0.05941259  0.25848324  0.43916538     2.84200
O211        O  0.99796928  0.30353502  0.43822050    -1.09500
O212        O  0.05593304  0.21713959  0.50376365    -1.09000
C213        C  0.15312465  0.24709311  0.50514539     1.05700
C214        C  0.99743776  0.27558997  0.34430032     1.08300
C215        C  0.07415228  0.15202385  0.58015885     1.05800
C216        C  0.07914469  0.37701139  0.57264879     1.06200
C217        C  0.91514896  0.37055528  0.42051233     1.05800
C218        C  0.91414811  0.15186917  0.42214121     1.05300
C219        C  0.06999304  0.14650651  0.42264029     1.05800
C220        C  0.07715462  0.36643295  0.41396038     1.05300
H221        H  0.99521387  0.19752794  0.41322021     0.32000
O222        O  0.99528707  0.21547800  0.43886137    -1.30600
H223        H  0.08650902  0.32354353  0.49838607     0.32000
O224        O  0.06001039  0.30579066  0.49944218    -1.32000
C225        C  0.79832628  0.51032959  0.64640512    -0.03400
C226        C  0.18517256  0.51857579  0.65669938    -0.03400
C227        C  0.84022846  0.01252114  0.31205842    -0.03400
C228        C  0.84379559  0.00127828  0.69637515    -0.03400
C229        C  0.80203246  0.50216257  0.33660619    -0.03400
C230        C  0.18415350  0.51032686  0.34659529    -0.03400
C231        C  0.14879452  0.01975079  0.30193998    -0.03400
C232        C  0.14623753  0.00886542  0.68649973    -0.03400
O233        O  0.73656941  0.65418117  0.95204607    -0.87400
O234        O  0.74311099  0.47759364  0.13007605    -0.87600
O235        O  0.66851009  0.59938822  0.08263149    -0.89200
O236        O  0.80339776  0.60496948  0.08105384    -0.88000
O237        O  0.85890869  0.56392621  0.05187844    -0.87600
O238        O  0.61393047  0.56715990  0.04229903    -0.89000
O239        O  0.74672286  0.55258255  0.13006026    -0.87400
O240        O  0.72971307  0.65118019  0.02675586    -0.87000
Zr241      Zr  0.73740735  0.57571754  0.05371225     2.84300
O242        O  0.78085000  0.51338833  0.05607259    -1.09000
O243        O  0.69783616  0.57724687  0.98949030    -1.09700
C244        C  0.72904161  0.67193782  0.98941842     1.05700
C245        C  0.74855010  0.51474325  0.14956420     1.05600
C246        C  0.62812410  0.59263855  0.07308057     1.08600
C247        C  0.84350760  0.59449424  0.07684216     1.06400
H248        H  0.67240885  0.51381361  0.08048444     0.32000
O249        O  0.69078527  0.51432040  0.05455110    -1.30000
H250        H  0.80498611  0.60297011  0.99509768     0.31600
O251        O  0.78660533  0.57696019  0.99420059    -1.31600
O252        O  0.72606748  0.37651644  0.02996878    -0.87400
O253        O  0.75093267  0.55321214  0.85399676    -0.88900
O254        O  0.61542427  0.46105147  0.03931751    -0.87500
O255        O  0.85716691  0.45772405  0.04815846    -0.87500
O256        O  0.87125346  0.56458068  0.94835878    -0.87200
O257        O  0.62031420  0.57353289  0.94161465    -0.87000
O258        O  0.66856581  0.43529949  0.89560338    -0.87400
O259        O  0.80676168  0.42256832  0.90645757    -0.86900
O260        O  0.61417178  0.47052036  0.93316772    -0.87900
O261        O  0.85974347  0.45850448  0.94557778    -0.87100
O262        O  0.66592917  0.42496896  0.08066443    -0.87500
O263        O  0.67769598  0.60564493  0.90235807    -0.87200
O264        O  0.82144291  0.60567946  0.91033005    -0.86900
O265        O  0.80021250  0.41940880  0.08148496    -0.87300
O266        O  0.72706373  0.37845716  0.95490287    -0.87600
O267        O  0.74454996  0.47841832  0.85335347    -0.88900
Zr268      Zr  0.73474012  0.45212680  0.05444586     2.83100
Zr269      Zr  0.74661700  0.57853976  0.92957036     2.83500
Zr270      Zr  0.64957240  0.51682117  0.98982186     2.84100
Zr271      Zr  0.82876463  0.51295575  0.99609924     2.83400
Zr272      Zr  0.73841840  0.45415112  0.92957528     2.84200
O273        O  0.78748204  0.51446522  0.93135220    -1.09500
O274        O  0.69201601  0.45360724  0.99088081    -1.09000
C275        C  0.72267772  0.35819525  0.99224665     1.05700
C276        C  0.74910942  0.51619177  0.83395202     1.08300
C277        C  0.62657037  0.43209117  0.06867003     1.05800
C278        C  0.84106668  0.42702701  0.07398542     1.06200
C279        C  0.86132710  0.59552741  0.92050975     1.05800
C280        C  0.63673751  0.60009280  0.91208213     1.05300
C281        C  0.62802031  0.44467737  0.90259781     1.05800
C282        C  0.84686846  0.42969953  0.91712831     1.05300
H283        H  0.68106730  0.51972253  0.90204153     0.32000
O284        O  0.69774423  0.51820242  0.92873871    -1.30600
H285        H  0.79730709  0.42463546  0.99385613     0.32000
O286        O  0.78109022  0.45158243  0.99326623    -1.32000
O287        O  0.25790501  0.65048640  0.96628104    -0.87400
O288        O  0.23484913  0.46926953  0.13984912    -0.87600
O289        O  0.17592527  0.60320801  0.08947068    -0.89200
O290        O  0.31681237  0.59467211  0.09560572    -0.88000
O291        O  0.36855802  0.55602288  0.05842462    -0.87600
O292        O  0.12388255  0.56668787  0.04993628    -0.89000
O293        O  0.23945503  0.54465098  0.14136741    -0.87400
O294        O  0.25694423  0.64870364  0.04166511    -0.87000
Zr295      Zr  0.24561144  0.57243379  0.06613240     2.84300
O296        O  0.28653245  0.50809743  0.06598820    -1.09000
O297        O  0.20253427  0.57474365  0.00273258    -1.09700
C298        C  0.26107632  0.66864394  0.00408208     1.05700
C299        C  0.23496872  0.50635057  0.15977190     1.05600
C300        C  0.13583322  0.59563286  0.07839689     1.08600
C301        C  0.35696718  0.58449770  0.08723384     1.06400
H302        H  0.17884768  0.51041488  0.08943137     0.32000
O303        O  0.19817557  0.51072133  0.06419148    -1.30000
H304        H  0.31164691  0.59759773  0.00466048     0.31600
O305        O  0.29147136  0.57289494  0.00422389    -1.31600
O306        O  0.24895025  0.37106597  0.03914850    -0.87400
O307        O  0.24087403  0.55371537  0.86440080    -0.88900
O308        O  0.11774919  0.46017205  0.05267544    -0.87500
O309        O  0.36103904  0.45519139  0.05502982    -0.87500
O310        O  0.37148813  0.55969929  0.95346062    -0.87200
O311        O  0.12393766  0.56510392  0.94749388    -0.87000
O312        O  0.17674767  0.42182876  0.91355891    -0.87400
O313        O  0.31460929  0.42811421  0.90923526    -0.86900
O314        O  0.12334853  0.46006900  0.94954521    -0.87900
O315        O  0.36706412  0.46001855  0.95151087    -0.87100
O316        O  0.16831175  0.41707868  0.08647068    -0.87500
O317        O  0.18065013  0.60490322  0.91546595    -0.87200
O318        O  0.32048859  0.59745692  0.91346428    -0.86900
O319        O  0.30547967  0.41932588  0.09331812    -0.87300
O320        O  0.25173921  0.37413599  0.96412538    -0.87600
O321        O  0.23955028  0.47858454  0.86335331    -0.88900
Zr322      Zr  0.23926267  0.44654927  0.06345900     2.83100
Zr323      Zr  0.24877464  0.57534172  0.94099572     2.83500
Zr324      Zr  0.15571483  0.51258466  0.00090115     2.84100
Zr325      Zr  0.33264074  0.50939354  0.00403694     2.83400
Zr326      Zr  0.24508348  0.45069557  0.93896821     2.84200
O327        O  0.29148544  0.51239258  0.93973256    -1.09500
O328        O  0.19730586  0.44842043  0.99990848    -1.09000
C329        C  0.25420095  0.35322045  0.00136456     1.05700
C330        C  0.23694086  0.51681627  0.84436750     1.08300
C331        C  0.12855694  0.42852146  0.07964546     1.05800
C332        C  0.34582525  0.42773492  0.08439428     1.06200
C333        C  0.36010558  0.58760836  0.92336585     1.05800
C334        C  0.13969567  0.59525113  0.92075827     1.05300
C335        C  0.13670423  0.43043630  0.92264007     1.05800
C336        C  0.35485123  0.43522943  0.91966637     1.05300
H337        H  0.18414036  0.51449388  0.91434327     0.32000
O338        O  0.20238960  0.51362690  0.93997623    -1.30600
H339        H  0.30512493  0.42282426  0.00238961     0.32000
O340        O  0.28658424  0.44814828  0.00249628    -1.32000
C341        C  0.00789164  0.70731709  0.84349649    -0.03400
C342        C  0.99424373  0.33000902  0.84377058    -0.03400
C343        C  0.49401203  0.65818568  0.80059709    -0.03400
C344        C  0.50045191  0.67338600  0.18885756    -0.03400
C345        C  0.97816078  0.32428882  0.15584963    -0.03400
C346        C  0.98431989  0.69718712  0.14609146    -0.03400
C347        C  0.48935015  0.34974402  0.80700584    -0.03400
C348        C  0.48968951  0.36161868  0.18556902    -0.03400
O349        O  0.57055422  0.40986377  0.56361013    -0.87400
O350        O  0.45482769  0.48436020  0.36066382    -0.87600
O351        O  0.47615308  0.37036149  0.45390834    -0.89200
O352        O  0.59883915  0.45130304  0.41889742    -0.88000
O353        O  0.60095145  0.52474900  0.40635297    -0.87600
O354        O  0.41737257  0.38443677  0.49899403    -0.89000
O355        O  0.50417725  0.43066443  0.37827754    -0.87400
O356        O  0.56308750  0.38444475  0.49349737    -0.87000
Zr357      Zr  0.52354086  0.43732176  0.45260607     2.84300
O358        O  0.51847305  0.50788341  0.42306652    -1.09000
O359        O  0.49619052  0.43541692  0.52480173    -1.09700
C360        C  0.57501867  0.38051822  0.53347124     1.05700
C361        C  0.47853647  0.45069935  0.35205244     1.05600
C362        C  0.43901710  0.35992616  0.47282706     1.08600
C363        C  0.61882527  0.48752783  0.40573552     1.06400
H364        H  0.43251851  0.44163087  0.43534644     0.32000
O365        O  0.45037523  0.46047901  0.45324741    -1.30000
H366        H  0.59511270  0.47365176  0.49503682     0.31600
O367        O  0.56554735  0.48432492  0.49495845    -1.31600
O368        O  0.41175113  0.60612836  0.42969250    -0.87400
O369        O  0.53168978  0.53987750  0.62587642    -0.88900
O370        O  0.35400851  0.47034710  0.48512443    -0.87500
O371        O  0.55180558  0.59173161  0.39126104    -0.87500
O372        O  0.62799364  0.54796417  0.50936335    -0.87200
O373        O  0.43421715  0.42460162  0.60098821    -0.87000
O374        O  0.39250196  0.56423295  0.58080836    -0.87400
O375        O  0.50405127  0.64599301  0.52418813    -0.86900
O376        O  0.37110404  0.49274205  0.57016672    -0.87900
O377        O  0.56563394  0.62984091  0.48379879    -0.87100
O378        O  0.37283903  0.50786314  0.42174986    -0.87500
O379        O  0.50274953  0.44427790  0.62521428    -0.87200
O380        O  0.61237416  0.50432389  0.57000474    -0.86900
O381        O  0.48314756  0.57284281  0.36701662    -0.87300
O382        O  0.39790594  0.60647904  0.50215518    -0.87600
O383        O  0.48825693  0.59706232  0.60370122    -0.88900
Zr384      Zr  0.44656842  0.53205238  0.42385962     2.83100
Zr385      Zr  0.53746490  0.48409535  0.56667772     2.83500
Zr386      Zr  0.42363042  0.45804006  0.52571736     2.84100
Zr387      Zr  0.56057569  0.55522782  0.46433949     2.83400
Zr388      Zr  0.46072758  0.57690721  0.53610150     2.84200
O389        O  0.53355190  0.55452683  0.53615948    -1.09500
O390        O  0.41981554  0.52857109  0.49514209    -1.09000
C391        C  0.39793538  0.62534780  0.46479665     1.05700
C392        C  0.51235652  0.57736755  0.63120554     1.08300
C393        C  0.34469424  0.49032606  0.44837525     1.05800
C394        C  0.52091346  0.59126382  0.36215008     1.06200
C395        C  0.63838414  0.52708697  0.54524154     1.05800
C396        C  0.46497375  0.42601253  0.63049937     1.05300
C397        C  0.36568837  0.53080713  0.58631961     1.05800
C398        C  0.54128319  0.65593810  0.50511159     1.05300
H399        H  0.45416640  0.50781697  0.59723486     0.32000
O400        O  0.46507924  0.50677953  0.56749644    -1.30600
H401        H  0.48790188  0.60952750  0.45197424     0.32000
O402        O  0.48869094  0.58032010  0.46465001    -1.32000
O403        O  0.09836136  0.94600270  0.06031564    -0.87400
O404        O  0.01845176  0.05398237  0.86135662    -0.87600
O405        O  0.05562893  0.91541902  0.92251285    -0.89200
O406        O  0.12532337  0.04267341  0.96528660    -0.88000
O407        O  0.10840130  0.10177149  0.00764073    -0.87600
O408        O  0.98454595  0.89214942  0.93311599    -0.89000
O409        O  0.07740709  0.01505628  0.88483903    -0.87400
O410        O  0.11227043  0.94303852  0.98683978    -0.87000
Zr411      Zr  0.06231156  0.99096550  0.95624968     2.84300
O412        O  0.03768691  0.06327167  0.95564630    -1.09000
O413        O  0.01911206  0.94626822  0.00156998    -1.09700
C414        C  0.12375315  0.93816736  0.02636172     1.05700
C415        C  0.05602237  0.03517240  0.85529945     1.05600
C416        C  0.02384348  0.88622071  0.91970615     1.08600
C417        C  0.13465742  0.07879441  0.98540034     1.06400
H418        H  0.99472152  0.97855818  0.89795293     0.32000
O419        O  0.99274051  0.99027223  0.92708661    -1.30000
H420        H  0.09348707  0.02145137  0.03822381     0.31600
O421        O  0.06432362  0.02012759  0.02654960    -1.31600
O422        O  0.89528408  0.09790958  0.92750366    -0.87400
O423        O  0.97380829  0.98416608  0.13703933    -0.88900
O424        O  0.91964921  0.95220249  0.89768841    -0.87500
O425        O  0.02676301  0.15731421  0.98223025    -0.87500
O426        O  0.07529815  0.08213169  0.09830079    -0.87200
O427        O  0.95968324  0.87980656  0.02369514    -0.87000
O428        O  0.85370785  0.99933096  0.04057909    -0.87400
O429        O  0.92725429  0.12255835  0.07265221    -0.86900
O430        O  0.87284917  0.94189427  0.99730438    -0.87900
O431        O  0.00087284  0.13489612  0.07881967    -0.87100
O432        O  0.90828109  0.02486629  0.89248714    -0.87500
O433        O  0.00305976  0.90177635  0.07976021    -0.87200
O434        O  0.06332900  0.01178721  0.12378713    -0.86900
O435        O  0.98606616  0.13957630  0.92167109    -0.87300
O436        O  0.86816277  0.08427189  0.99708039    -0.87600
O437        O  0.91506508  0.02539247  0.11614422    -0.88900
Zr438      Zr  0.96768595  0.06277325  0.92612202     2.83100
Zr439      Zr  0.02086872  0.97591460  0.07104842     2.83500
Zr440      Zr  0.94816834  0.94592545  0.97409575     2.84100
Zr441      Zr  0.03524232  0.09005198  0.02738975     2.83400
Zr442      Zr  0.92045581  0.04672000  0.04159723     2.84200
O443        O  0.99069854  0.04601464  0.07158295    -1.09500
O444        O  0.92332015  0.01785460  0.97165400    -1.09000
C445        C  0.86488117  0.09883364  0.95747439     1.05700
C446        C  0.93727969  0.00417134  0.14463310     1.08300
C447        C  0.91005238  0.98734639  0.87527403     1.05800
C448        C  0.00668290  0.16678272  0.94608304     1.06200
C449        C  0.07996817  0.05031112  0.12684340     1.05800
C450        C  0.98165890  0.87256169  0.05969990     1.05300
C451        C  0.84543476  0.96236372  0.02160762     1.05800
C452        C  0.96124458  0.14677268  0.08265244     1.05300
H453        H  0.93035803  0.95658253  0.06370130     0.32000
O454        O  0.94849172  0.97498674  0.04459333    -1.30600
H455        H  0.95320235  0.11971034  0.99622798     0.32000
O456        O  0.96539441  0.09074766  0.99706842    -1.32000
C457        C  0.49063951  0.38816554  0.22908295    -0.07000
C458        C  0.45047096  0.38646583  0.25383424    -0.18200
C459        C  0.44385101  0.41066300  0.29115987     0.10200
C460        C  0.47933562  0.43355592  0.30826816    -0.07000
C461        C  0.52016786  0.43246715  0.28743263    -0.18200
C462        C  0.52556562  0.41452152  0.24615288     0.10200
S463        S  0.39113332  0.40667180  0.31818113    -0.33200
S464        S  0.57485309  0.43202838  0.21697206    -0.33200
H465        H  0.59705209  0.45284773  0.25124303     0.28200
H466        H  0.38854313  0.45171364  0.32670993     0.28200
H467        H  0.42329655  0.36594769  0.24346301     0.18800
H468        H  0.54794267  0.44756143  0.30342292     0.18800
C469        C  0.47853781  0.36642990  0.75860397    -0.07000
C470        C  0.47538797  0.41212921  0.75264222    -0.18200
C471        C  0.46545193  0.43151333  0.71236868     0.10200
C472        C  0.45879666  0.40622520  0.67483085    -0.07000
C473        C  0.45854175  0.36104224  0.67974051    -0.18200
C474        C  0.46602513  0.34054009  0.72062960     0.10200
S475        S  0.46198029  0.48952715  0.71113691    -0.33200
S476        S  0.45018009  0.28317686  0.72021636    -0.33200
H477        H  0.46966680  0.27423252  0.67938390     0.28200
H478        H  0.43119536  0.49100166  0.67710075     0.28200
H479        H  0.48069689  0.43357337  0.78009944     0.18800
H480        H  0.45209196  0.34152493  0.65105805     0.18800
C481        C  0.99009681  0.74191308  0.11933128    -0.07000
C482        C  0.00725910  0.77893165  0.14056885    -0.18200
C483        C  0.00502883  0.82129274  0.12274680     0.10200
C484        C  0.98532181  0.82803723  0.08065922    -0.07000
C485        C  0.97434663  0.79096396  0.05673555    -0.18200
C486        C  0.98029516  0.74859760  0.07397630     0.10200
S487        S  0.02886067  0.86474831  0.15567199    -0.33200
S488        S  0.97463863  0.70562683  0.03547680    -0.33200
H489        H  0.01885799  0.69414687  0.03963667     0.28200
H490        H  0.03740952  0.84049466  0.19420383     0.28200
H491        H  0.02269940  0.77495738  0.17198823     0.18800
H492        H  0.96274432  0.79481306  0.02354673     0.18800
C493        C  0.95862815  0.19314148  0.09637248    -0.07000
C494        C  0.99063046  0.22227100  0.07838239    -0.18200
C495        C  0.99875073  0.26428311  0.09472595     0.10200
C496        C  0.97445319  0.27851780  0.13194050    -0.07000
C497        C  0.93928527  0.25000264  0.14635068    -0.18200
C498        C  0.93155672  0.20815562  0.12969528     0.10200
S499        S  0.03817287  0.29739631  0.06381692    -0.33200
S500        S  0.88860890  0.17468343  0.15404404    -0.33200
H501        H  0.91642892  0.13895302  0.16048006     0.28200
H502        H  0.02993916  0.27853993  0.02281647     0.28200
H503        H  0.01080229  0.21135999  0.05140991     0.18800
H504        H  0.91769118  0.25976985  0.17202851     0.18800
C505        C  0.50159311  0.65420185  0.23772910    -0.07000
C506        C  0.50507101  0.60835560  0.24257727    -0.18200
C507        C  0.52102430  0.58910698  0.28099853     0.10200
C508        C  0.52627862  0.61362083  0.31923519    -0.07000
C509        C  0.51689952  0.65797827  0.31729634    -0.18200
C510        C  0.50230205  0.67826582  0.27859792     0.10200
S511        S  0.53745044  0.53329296  0.27828432    -0.33200
S512        S  0.47777328  0.73059803  0.29065555    -0.33200
H513        H  0.44499266  0.73073011  0.25946672     0.28200
H514        H  0.56403807  0.53360563  0.31569652     0.28200
H515        H  0.50128702  0.58779494  0.21417853     0.18800
H516        H  0.51611407  0.67586738  0.34775232     0.18800
C517        C  0.51018580  0.59791553  0.67367560    -0.07000
C518        C  0.47125399  0.58946808  0.69655074    -0.18200
C519        C  0.46193511  0.60781273  0.73676979     0.10200
C520        C  0.49255155  0.63939849  0.75378262    -0.07000
C521        C  0.52505596  0.65638304  0.72377956    -0.18200
C522        C  0.53454045  0.63558079  0.68434204     0.10200
S523        S  0.41000628  0.58688607  0.75926925    -0.33200
S524        S  0.57796252  0.65835314  0.64999489    -0.33200
H525        H  0.58578258  0.62048103  0.62569049     0.28200
H526        H  0.39511019  0.62187150  0.78353969     0.28200
H527        H  0.44637167  0.56916265  0.68148138     0.18800
H528        H  0.54657903  0.68314152  0.73309129     0.18800
C529        C  0.99716598  0.28657872  0.87291997    -0.07000
C530        C  0.96607716  0.27598141  0.90638349    -0.18200
C531        C  0.96975307  0.23857725  0.93326308     0.10200
C532        C  0.00686390  0.21200775  0.92960567    -0.07000
C533        C  0.03934262  0.22311677  0.89924627    -0.18200
C534        C  0.03501271  0.25878655  0.87046778     0.10200
S535        S  0.92454977  0.22537072  0.96995699    -0.33200
S536        S  0.07754679  0.26458879  0.82900206    -0.33200
H537        H  0.11002873  0.24034185  0.85056358     0.28200
H538        H  0.94785910  0.19823412  0.99861754     0.28200
H539        H  0.93871980  0.29663040  0.91310877     0.18800
H540        H  0.06667488  0.20115559  0.89552535     0.18800
C541        C  0.01443728  0.75367703  0.86676069    -0.07000
C542        C  0.04028606  0.78716211  0.84506976    -0.18200
C543        C  0.04661603  0.82992409  0.86139574     0.10200
C544        C  0.02961985  0.84052084  0.90276509    -0.07000
C545        C  0.00534612  0.80753058  0.92527344    -0.18200
C546        C  0.99281392  0.76798094  0.90600200     0.10200
S547        S  0.07288071  0.87007697  0.82586562    -0.33200
S548        S  0.94241849  0.74619041  0.92986078    -0.33200
H549        H  0.91923018  0.74665916  0.89040673     0.28200
H550        H  0.04495122  0.90449322  0.83685243     0.28200
H551        H  0.05217935  0.78179013  0.81224259     0.18800
H552        H  0.99000342  0.81562269  0.95613569     0.18800
C553        C  0.03626028  0.35413447  0.85998228    -0.07000
C554        C  0.03642673  0.36123715  0.90608010    -0.18200
C555        C  0.06902207  0.38442250  0.92682040     0.10200
C556        C  0.10360335  0.40258448  0.90188421    -0.07000
C557        C  0.10691760  0.39300111  0.85699637    -0.18200
C558        C  0.07397464  0.36868727  0.83562361     0.10200
S559        S  0.06393901  0.38954319  0.98547569    -0.33200
S560        S  0.08137259  0.35943719  0.77797792    -0.33200
H561        H  0.12714653  0.35533388  0.78046500     0.28200
H562        H  0.10886470  0.38417480  0.99352696     0.28200
H563        H  0.00908305  0.35011718  0.92647402     0.18800
H564        H  0.13467566  0.40587587  0.83821840     0.18800
C565        C  0.01796712  0.35628611  0.14203179    -0.07000
C566        C  0.06135457  0.34187337  0.14815892    -0.18200
C567        C  0.09818561  0.36572269  0.13149889     0.10200
C568        C  0.09247640  0.40388760  0.10453995    -0.07000
C569        C  0.05032159  0.42069508  0.10261747    -0.18200
C570        C  0.01462359  0.40066865  0.12464714     0.10200
S571        S  0.15097007  0.34586510  0.14736795    -0.33200
S572        S  0.96889739  0.43710905  0.13309196    -0.33200
H573        H  0.99145096  0.47738052  0.12646078     0.28200
H574        H  0.16476264  0.38674393  0.16364547     0.28200
H575        H  0.06676415  0.31094200  0.16504333     0.18800
H576        H  0.04540125  0.45160833  0.08548943     0.18800
C577        C  0.09964011  0.62110422  0.09923801    -0.07000
C578        C  0.05737717  0.60406045  0.09467615    -0.18200
C579        C  0.02011434  0.62800824  0.10416780     0.10200
C580        C  0.02339158  0.66763027  0.12951689    -0.07000
C581        C  0.06684338  0.68344097  0.13631705    -0.18200
C582        C  0.10426434  0.66203504  0.12020261     0.10200
S583        S  0.97320858  0.60781315  0.07431623    -0.33200
S584        S  0.15628181  0.68988146  0.12615192    -0.33200
H585        H  0.16861305  0.68485477  0.08202301     0.28200
H586        H  0.99567167  0.58996726  0.03840977     0.28200
H587        H  0.05292551  0.57234015  0.07970402     0.18800
H588        H  0.07179938  0.71410404  0.15307285     0.18800
C589        C  0.10938112  0.62164772  0.89353169    -0.07000
C590        C  0.11963669  0.66614606  0.88564559    -0.18200
C591        C  0.09271196  0.69302066  0.86015750     0.10200
C592        C  0.05031158  0.67766465  0.84771773    -0.07000
C593        C  0.04484425  0.63103209  0.84852540    -0.18200
C594        C  0.07340729  0.60332600  0.87134863     0.10200
S595        S  0.12222126  0.73631513  0.83150321    -0.33200
S596        S  0.06105225  0.54533823  0.87232040    -0.33200
H597        H  0.10496547  0.53202070  0.87121376     0.28200
H598        H  0.10096255  0.72851799  0.79154255     0.28200
H599        H  0.15050089  0.67957381  0.89708842     0.18800
H600        H  0.01550880  0.61610820  0.83524617     0.18800
C601        C  0.38899657  0.41351784  0.89230914    -0.07000
C602        C  0.37577689  0.38404528  0.85963294    -0.18200
C603        C  0.40587948  0.36373511  0.83134306     0.10200
C604        C  0.45198788  0.37037318  0.83687579    -0.07000
C605        C  0.46339525  0.40394401  0.86706255    -0.18200
C606        C  0.43397242  0.42360139  0.89546990     0.10200
S607        S  0.38316935  0.33198586  0.78739073    -0.33200
S608        S  0.45586236  0.46377126  0.93307917    -0.33200
H609        H  0.50046435  0.45336867  0.92912908     0.28200
H610        H  0.33972264  0.32880530  0.80299233     0.28200
H611        H  0.34116836  0.37759733  0.85529516     0.18800
H612        H  0.49547234  0.41861718  0.86737951     0.18800
C613        C  0.45774405  0.63927529  0.83257138    -0.07000
C614        C  0.42791510  0.66772010  0.85326624    -0.18200
C615        C  0.39636062  0.65237778  0.88353321     0.10200
C616        C  0.39512844  0.60768276  0.89597243    -0.07000
C617        C  0.42590084  0.57962245  0.87848513    -0.18200
C618        C  0.45666389  0.59408404  0.84714404     0.10200
S619        S  0.35955737  0.69196959  0.90606285    -0.33200
S620        S  0.49208598  0.55232475  0.82589160    -0.33200
H621        H  0.46632377  0.51525150  0.83790953     0.28200
H622        H  0.35389895  0.66966047  0.94637421     0.28200
H623        H  0.42890773  0.70262427  0.84695552     0.18800
H624        H  0.42463862  0.54533980  0.88835732     0.18800
C625        C  0.46066287  0.64943028  0.16388155    -0.07000
C626        C  0.46859842  0.62692533  0.12395293    -0.18200
C627        C  0.43585650  0.61021952  0.09718848     0.10200
C628        C  0.39243783  0.60713711  0.11264548    -0.07000
C629        C  0.38352880  0.62423060  0.15430646    -0.18200
C630        C  0.41632508  0.64504698  0.17984765     0.10200
S631        S  0.45253568  0.59561318  0.04238331    -0.33200
S632        S  0.39982687  0.66334972  0.23319504    -0.33200
H633        H  0.35431734  0.65730936  0.22882317     0.28200
H634        H  0.41663639  0.61586223  0.02212710     0.28200
H635        H  0.50063436  0.62075141  0.11154688     0.18800
H636        H  0.35052455  0.62069703  0.16725773     0.18800
C637        C  0.44659502  0.37813322  0.16464194    -0.07000
C638        C  0.41306053  0.34893925  0.15129011    -0.18200
C639        C  0.37961260  0.36347255  0.12400505     0.10200
C640        C  0.37764874  0.40845990  0.11318526    -0.07000
C641        C  0.40625484  0.43827989  0.13177374    -0.18200
C642        C  0.44075529  0.42441421  0.15669763     0.10200
S643        S  0.34272079  0.32298985  0.10176435    -0.33200
S644        S  0.47957391  0.46751051  0.17063148    -0.33200
H645        H  0.44845796  0.50065102  0.17614000     0.28200
H646        H  0.33808931  0.34438396  0.06090005     0.28200
H647        H  0.41386695  0.31436627  0.15944009     0.18800
H648        H  0.40301222  0.47307745  0.12450198     0.18800
C649        C  0.59214450  0.40567165  0.09187504    -0.07000
C650        C  0.60369691  0.37713535  0.12682447    -0.18200
C651        C  0.57198806  0.35877070  0.15569449     0.10200
C652        C  0.52743010  0.37116978  0.15099014    -0.07000
C653        C  0.51695981  0.38939173  0.10898466    -0.18200
C654        C  0.54785302  0.40845602  0.08092033     0.10200
S655        S  0.59200962  0.32182955  0.19770293    -0.33200
S656        S  0.52869258  0.43415210  0.03079517    -0.33200
H657        H  0.48637996  0.44371390  0.04634190     0.28200
H658        H  0.56752357  0.33835832  0.23246752     0.28200
H659        H  0.63782760  0.37057129  0.13326864     0.18800
H660        H  0.48410975  0.38891127  0.09648975     0.18800
C661        C  0.59696926  0.61490727  0.10217411    -0.07000
C662        C  0.57982838  0.65549105  0.08959765    -0.18200
C663        C  0.55326434  0.67934807  0.11848506     0.10200
C664        C  0.54437163  0.66276129  0.16230726    -0.07000
C665        C  0.57201352  0.62847844  0.17635175    -0.18200
C666        C  0.59289712  0.60150393  0.14632461     0.10200
S667        S  0.52606808  0.72535599  0.09391094    -0.33200
S668        S  0.61095588  0.54858085  0.16581413    -0.33200
H669        H  0.60416530  0.52673259  0.12616201     0.28200
H670        H  0.54731065  0.75588773  0.12078622     0.28200
H671        H  0.58571369  0.66787242  0.05651411     0.18800
H672        H  0.57566446  0.61978186  0.21034915     0.18800
C673        C  0.60601374  0.62206454  0.88314685    -0.07000
C674        C  0.60654338  0.60868631  0.83993987    -0.18200
C675        C  0.57248487  0.61801465  0.81131776     0.10200
C676        C  0.53748702  0.64617637  0.82544218    -0.07000
C677        C  0.54036480  0.66231389  0.86893837    -0.18200
C678        C  0.57324221  0.64991876  0.89783216     0.10200
S679        S  0.57376411  0.58378421  0.76335116    -0.33200
S680        S  0.57122242  0.67013977  0.95303149    -0.33200
H681        H  0.61635682  0.66689287  0.96113263     0.28200
H682        H  0.61960519  0.58122231  0.75890006     0.28200
H683        H  0.63182104  0.58615674  0.83008124     0.18800
H684        H  0.51539516  0.68393550  0.88117293     0.18800
C685        C  0.59519896  0.42090496  0.87524124    -0.14200
C686        C  0.57463370  0.38417788  0.89427997    -0.18200
C687        C  0.54803669  0.35550878  0.87015802     0.10200
C688        C  0.53509774  0.36710816  0.82617801    -0.07000
C689        C  0.56005961  0.40173032  0.80578564    -0.18200
C690        C  0.58919337  0.42873682  0.82982636     0.10200
S691        S  0.53016768  0.30573064  0.89835241    -0.33200
S692        S  0.61585550  0.47425697  0.80135104    -0.33200
H693        H  0.61834085  0.50166782  0.83788087     0.28200
H694        H  0.55369181  0.31063273  0.93742071     0.28200
H695        H  0.58056938  0.37728390  0.92862027     0.18800
H696        H  0.55588503  0.40954720  0.77147698     0.18800
C697        C  0.87154679  0.39656426  0.09513859    -0.07000
C698        C  0.86538931  0.38317483  0.13921161    -0.18200
C699        C  0.89548335  0.35591112  0.16096915     0.10200
C700        C  0.93498119  0.34482669  0.13839691    -0.07000
C701        C  0.93546991  0.35232714  0.09210829    -0.18200
C702        C  0.90495308  0.37776326  0.07059211     0.10200
S703        S  0.87671005  0.33547878  0.21417185    -0.33200
S704        S  0.90953781  0.38597386  0.01173919    -0.33200
H705        H  0.94839579  0.36270172  0.00500814     0.28200
H706        H  0.90494270  0.30147825  0.22358072     0.28200
H707        H  0.83659408  0.39382481  0.15675149     0.18800
H708        H  0.96254883  0.34136256  0.07270038     0.18800
C709        C  0.88151650  0.40453547  0.89410809    -0.07000
C710        C  0.92241771  0.42492541  0.89053183    -0.18200
C711        C  0.95771580  0.40571042  0.86978587     0.10200
C712        C  0.95440638  0.36053056  0.85558113    -0.07000
C713        C  0.91135818  0.34287657  0.85343677    -0.18200
C714        C  0.87541511  0.36347138  0.87341439     0.10200
S715        S  0.00248690  0.44546912  0.86246512    -0.33200
S716        S  0.82376644  0.33403836  0.87342778    -0.33200
H717        H  0.81517417  0.34059323  0.91821620     0.28200
H718        H  0.02080457  0.43133233  0.82342651     0.28200
H719        H  0.92670775  0.45791897  0.90277473     0.18800
H720        H  0.90637460  0.31066888  0.83963473     0.18800
C721        C  0.96915369  0.67879371  0.86557027    -0.07000
C722        C  0.93023701  0.67057642  0.84205694    -0.18200
C723        C  0.89628465  0.64291037  0.85812414     0.10200
C724        C  0.89861861  0.62226285  0.89986047    -0.07000
C725        C  0.93735322  0.62873808  0.92335964    -0.18200
C726        C  0.97205787  0.65603150  0.90759130     0.10200
S727        S  0.85217151  0.63320127  0.82144842    -0.33200
S728        S  0.01765402  0.65952908  0.94510180    -0.33200
H729        H  0.03601153  0.69958977  0.93119299     0.28200
H730        H  0.84829088  0.58806965  0.83171414     0.28200
H731        H  0.92550287  0.68518558  0.81002726     0.18800
H732        H  0.94032576  0.61318008  0.95539844     0.18800
C733        C  0.87325415  0.62256290  0.10120262    -0.07000
C734        C  0.89496698  0.60617590  0.13803761    -0.18200
C735        C  0.92842293  0.63133234  0.15751248     0.10200
C736        C  0.93911179  0.67395126  0.13932546    -0.07000
C737        C  0.90718996  0.69320186  0.11225996    -0.18200
C738        C  0.87673359  0.66752814  0.09067126     0.10200
S739        S  0.96143584  0.60463389  0.19862598    -0.33200
S740        S  0.84624002  0.69334838  0.04714058    -0.33200
H741        H  0.85451321  0.66010618  0.01691168     0.28200
H742        H  0.93483765  0.56687534  0.20491928     0.28200
H743        H  0.88870692  0.57251873  0.14857105     0.18800
H744        H  0.90789848  0.72765482  0.10385578     0.18800
C745        C  0.12476455  0.01740502  0.73249955    -0.07000
C746        C  0.10724515  0.05929012  0.74306602    -0.18200
C747        C  0.08270440  0.06620887  0.78148767     0.10200
C748        C  0.07730828  0.03158897  0.81179663    -0.07000
C749        C  0.09954253  0.99227439  0.80440866    -0.18200
C750        C  0.12445247  0.98543713  0.76684956     0.10200
S751        S  0.06147848  0.11980168  0.79294315    -0.33200
S752        S  0.14968435  0.93272327  0.76272439    -0.33200
H753        H  0.15536220  0.92558419  0.80799819     0.28200
H754        H  0.07198752  0.13932822  0.75197706     0.28200
H755        H  0.11291601  0.08736026  0.72160195     0.18800
H756        H  0.09711265  0.96585115  0.82850214     0.18800
C757        C  0.13249587  0.03082763  0.25411056    -0.07000
C758        C  0.10692935  0.06863884  0.24471179    -0.18200
C759        C  0.09258071  0.07937508  0.20239944     0.10200
C760        C  0.10663272  0.05471891  0.16669903    -0.07000
C761        C  0.13581230  0.02040509  0.17448773    -0.18200
C762        C  0.14690904  0.00665827  0.21696804     0.10200
S763        S  0.05243054  0.12176231  0.19686094    -0.33200
S764        S  0.17445089  0.95466319  0.22188127    -0.33200
H765        H  0.19155363  0.95388265  0.17890671     0.28200
H766        H  0.06800938  0.13779356  0.15611079     0.28200
H767        H  0.09741767  0.09103283  0.26981439     0.18800
H768        H  0.14524064  0.00034427  0.14707156     0.18800
C769        C  0.19796778  0.51087388  0.29679396    -0.07000
C770        C  0.24245362  0.50498858  0.28401722    -0.18200
C771        C  0.25593547  0.50297789  0.24001769     0.10200
C772        C  0.22444977  0.50537199  0.20686581    -0.07000
C773        C  0.18044268  0.50912681  0.21827551    -0.18200
C774        C  0.16655654  0.51210522  0.26197978     0.10200
S775        S  0.31383515  0.49742308  0.22884076    -0.33200
S776        S  0.10849982  0.52022980  0.27047097    -0.33200
H777        H  0.09634405  0.52766538  0.22664964     0.28200
H778        H  0.31093744  0.48387958  0.18520658     0.28200
H779        H  0.26766899  0.50041015  0.30806868     0.18800
H780        H  0.15668133  0.51049654  0.19214709     0.18800
C781        C  0.22405499  0.50724468  0.37918677    -0.07000
C782        C  0.22619664  0.47419307  0.41295692    -0.18200
C783        C  0.26402211  0.46793836  0.43832374     0.10200
C784        C  0.29911148  0.49773764  0.43359278    -0.07000
C785        C  0.29298891  0.53575091  0.40791635    -0.18200
C786        C  0.25757731  0.54028765  0.38003550     0.10200
S787        S  0.26669754  0.42229926  0.47622979    -0.33200
S788        S  0.25898027  0.58844961  0.34510217    -0.33200
H789        H  0.30464869  0.58884848  0.33807398     0.28200
H790        H  0.23494394  0.39643689  0.45506286     0.28200
H791        H  0.19864225  0.45269764  0.42020195     0.18800
H792        H  0.31801911  0.56142556  0.40735367     0.18800
C793        C  0.79316903  0.50507479  0.28580153    -0.07000
C794        C  0.76560076  0.53969418  0.27169168    -0.18200
C795        C  0.75087882  0.54474242  0.22842022     0.10200
C796        C  0.76121256  0.51282568  0.19698941    -0.07000
C797        C  0.78753480  0.47792301  0.21043579    -0.18200
C798        C  0.80349039  0.47326753  0.25334196     0.10200
S799        S  0.71952840  0.59314852  0.21669361    -0.33200
S800        S  0.83418796  0.42411668  0.26299512    -0.33200
H801        H  0.80817814  0.39752985  0.23595337     0.28200
H802        H  0.69392024  0.57444505  0.18413705     0.28200
H803        H  0.75603518  0.56423406  0.29504243     0.18800
H804        H  0.79663922  0.45383574  0.18649233     0.18800
C805        C  0.75354713  0.49619699  0.35552694    -0.07000
C806        C  0.73456895  0.53042153  0.37891410    -0.18200
C807        C  0.69228466  0.52748338  0.39656039     0.10200
C808        C  0.66533687  0.48954104  0.38980993    -0.07000
C809        C  0.68270500  0.45556463  0.36564092    -0.18200
C810        C  0.72553053  0.45838130  0.34780278     0.10200
S811        S  0.67476250  0.57434661  0.42740068    -0.33200
S812        S  0.74315050  0.41162206  0.31714268    -0.33200
H813        H  0.70576546  0.38453588  0.32313285     0.28200
H814        H  0.71655669  0.58607518  0.44297957     0.28200
H815        H  0.75202789  0.56115107  0.38263356     0.18800
H816        H  0.66203661  0.42709671  0.35988143     0.18800
C817        C  0.86860097  0.99299479  0.74022666    -0.07000
C818        C  0.89673959  0.02515231  0.75687021    -0.18200
C819        C  0.91022199  0.02434687  0.80024771     0.10200
C820        C  0.90077656  0.98687461  0.82752800    -0.07000
C821        C  0.87973476  0.95072365  0.80904268    -0.18200
C822        C  0.86273648  0.95331537  0.76625282     0.10200
S823        S  0.93694933  0.07380044  0.81945831    -0.33200
S824        S  0.82938771  0.90740193  0.74857613    -0.33200
H825        H  0.84050106  0.87754124  0.78220596     0.28200
H826        H  0.92842512  0.10173260  0.78344231     0.28200
H827        H  0.90730705  0.05245434  0.73657708     0.18800
H828        H  0.87312490  0.92195847  0.82951033     0.18800
C829        C  0.91744197  0.00525052  0.18883907    -0.07000
C830        C  0.89189783  0.04193855  0.19813095    -0.18200
C831        C  0.86497991  0.04378004  0.23497657     0.10200
C832        C  0.86747815  0.01035534  0.26805066    -0.07000
C833        C  0.89388357  0.97335433  0.25806045    -0.18200
C834        C  0.91730691  0.97000853  0.21880849     0.10200
S835        S  0.83066813  0.09155791  0.23935652    -0.33200
S836        S  0.94193792  0.91814060  0.20718639    -0.33200
H837        H  0.92730773  0.91679176  0.16360866     0.28200
H838        H  0.83016348  0.10288438  0.19450338     0.28200
H839        H  0.89151412  0.06920267  0.17507178     0.18800
H840        H  0.89375883  0.94426902  0.27873092     0.18800
C841        C  0.19252224  0.51754217  0.70791077    -0.07000
C842        C  0.21712456  0.55330839  0.72522438    -0.18200
C843        C  0.23329605  0.55379572  0.76812697     0.10200
C844        C  0.22476801  0.51783172  0.79686493    -0.07000
C845        C  0.20020839  0.48242430  0.78082128    -0.18200
C846        C  0.18452453  0.48131244  0.73768563     0.10200
S847        S  0.26632234  0.60074173  0.78294468    -0.33200
S848        S  0.15799160  0.43033958  0.72455083    -0.33200
H849        H  0.12636314  0.43663185  0.75750426     0.28200
H850        H  0.29768847  0.57591184  0.80553768     0.28200
H851        H  0.22460713  0.58162185  0.70444634     0.18800
H852        H  0.19308181  0.45452364  0.80237326     0.18800
C853        C  0.32417036  0.53353894  0.61177675    -0.07000
C854        C  0.30912315  0.49480507  0.63307830    -0.18200
C855        C  0.26536720  0.48841006  0.64612849     0.10200
C856        C  0.23435303  0.52233845  0.63929382    -0.07000
C857        C  0.25215088  0.56349544  0.62349150    -0.18200
C858        C  0.29534895  0.56870696  0.60816837     0.10200
S859        S  0.25117410  0.43531193  0.66962082    -0.33200
S860        S  0.31077559  0.62011836  0.58200656    -0.33200
H861        H  0.32192978  0.60009765  0.54235253     0.28200
H862        H  0.29288937  0.42607445  0.68640916     0.28200
H863        H  0.33146342  0.46774760  0.63694771     0.18800
H864        H  0.23270533  0.59276757  0.62264913     0.18800
C865        C  0.78465709  0.50958098  0.69618790    -0.07000
C866        C  0.79461554  0.54649293  0.72238634    -0.18200
C867        C  0.77418139  0.55260832  0.76285662     0.10200
C868        C  0.75511590  0.51656124  0.78530709    -0.07000
C869        C  0.74445168  0.47949649  0.76071058    -0.18200
C870        C  0.75488897  0.47756492  0.71571814     0.10200
S871        S  0.76138611  0.60821398  0.77682843    -0.33200
S872        S  0.72756886  0.43367968  0.68693837    -0.33200
H873        H  0.75995045  0.42546651  0.65588770     0.28200
H874        H  0.71852450  0.59790713  0.79158533     0.28200
H875        H  0.81166066  0.57491050  0.70872191     0.18800
H876        H  0.72605823  0.45259775  0.77610469     0.18800
C877        C  0.75372044  0.51331953  0.62066091    -0.07000
C878        C  0.74379239  0.48381467  0.58656751    -0.18200
C879        C  0.71011621  0.49157080  0.55672266     0.10200
C880        C  0.68299682  0.52804858  0.56175401    -0.07000
C881        C  0.68993384  0.55574852  0.59665279    -0.18200
C882        C  0.72366883  0.54897534  0.62642734     0.10200
S883        S  0.70208135  0.45264003  0.51354437    -0.33200
S884        S  0.72968818  0.59184728  0.66601322    -0.33200
H885        H  0.68503288  0.60230930  0.66941968     0.28200
H886        H  0.68139287  0.48204529  0.48480955     0.28200
H887        H  0.76228413  0.45436588  0.58202569     0.18800
H888        H  0.66750592  0.58256580  0.60131204     0.18800
C889        C  0.99680951  0.28824745  0.29706652    -0.07000
C890        C  0.98232712  0.33029753  0.28544600    -0.18200
C891        C  0.97838921  0.34430430  0.24127926     0.10200
C892        C  0.98448247  0.31395298  0.20663177    -0.07000
C893        C  0.00306514  0.27297563  0.21958376    -0.18200
C894        C  0.00911226  0.25997505  0.26341846     0.10200
S895        S  0.96467372  0.40079080  0.23175969    -0.33200
S896        S  0.03302360  0.20676866  0.27307044    -0.33200
H897        H  0.02679942  0.20265050  0.31846526     0.28200
H898        H  0.97723076  0.41639664  0.27300625     0.28200
H899        H  0.97427362  0.35261979  0.31146797     0.18800
H900        H  0.01423377  0.25014500  0.19535379     0.18800
C901        C  0.98994748  0.28712388  0.70476582    -0.07000
C902        C  0.98650259  0.33159233  0.71421254    -0.18200
C903        C  0.98362075  0.34650317  0.75755007     0.10200
C904        C  0.98937744  0.31645271  0.79375342    -0.07000
C905        C  0.98574924  0.27109498  0.78256006    -0.18200
C906        C  0.98695546  0.25631563  0.73933901     0.10200
S907        S  0.96886621  0.40309744  0.76357174    -0.33200
S908        S  0.98436002  0.19759554  0.73131826    -0.33200
H909        H  0.97658578  0.19757150  0.68608817     0.28200
H910        H  0.95930660  0.41306478  0.71951925     0.28200
H911        H  0.98503894  0.35482731  0.68699548     0.18800
H912        H  0.98174283  0.24554755  0.80719618     0.18800
C913        C  0.83154019  0.46360460  0.35383496    -0.07000
C914        C  0.81584119  0.43506180  0.38819978    -0.18200
C915        C  0.84204571  0.40413628  0.40901074     0.10200
C916        C  0.88680563  0.40276250  0.39863117    -0.07000
C917        C  0.90380814  0.43076473  0.36582423    -0.18200
C918        C  0.87748330  0.46144587  0.34393570     0.10200
S919        S  0.81795242  0.36793867  0.45070610    -0.33200
S920        S  0.90409911  0.49657200  0.30306212    -0.33200
H921        H  0.94746815  0.48974377  0.31642772     0.28200
H922        H  0.77381397  0.37554543  0.44052347     0.28200
H923        H  0.78343646  0.43784025  0.40175616     0.18800
H924        H  0.93773591  0.42784073  0.35652121     0.18800
C925        C  0.88623863  0.40821414  0.59258612    -0.07000
C926        C  0.87308458  0.40436585  0.63656691    -0.18200
C927        C  0.84621010  0.43564392  0.65675354     0.10200
C928        C  0.82809090  0.47094872  0.63084704    -0.07000
C929        C  0.84267302  0.47372546  0.58639276    -0.18200
C930        C  0.87132122  0.44407191  0.56766890     0.10200
S931        S  0.83948114  0.42882017  0.71549773    -0.33200
S932        S  0.88629657  0.45351067  0.51102504    -0.33200
H933        H  0.88311207  0.40915038  0.50025888     0.28200
H934        H  0.87253083  0.39802780  0.72298934     0.28200
H935        H  0.88523675  0.37692716  0.65565125     0.18800
H936        H  0.83126942  0.49992797  0.56522511     0.18800
C937        C  0.10610440  0.41241400  0.59316122    -0.07000
C938        C  0.08799356  0.43710785  0.62661339    -0.18200
C939        C  0.11211252  0.47059359  0.64744280     0.10200
C940        C  0.15770149  0.47882933  0.63684581    -0.07000
C941        C  0.17434720  0.45473829  0.60097799    -0.18200
C942        C  0.14907143  0.42285391  0.57910620     0.10200
S943        S  0.08279173  0.50110130  0.68815484    -0.33200
S944        S  0.17183825  0.39869417  0.53086773    -0.33200
H945        H  0.13273484  0.39891011  0.50682645     0.28200
H946        H  0.04948589  0.46964865  0.69709250     0.28200
H947        H  0.05419340  0.43048971  0.63601235     0.18800
H948        H  0.20655381  0.46216540  0.58763800     0.18800
C949        C  0.15310202  0.46887835  0.35194966    -0.07000
C950        C  0.10761467  0.47379215  0.36000887    -0.18200
C951        C  0.08114957  0.43957734  0.37529450     0.10200
C952        C  0.10007859  0.39921388  0.38560234    -0.07000
C953        C  0.14247558  0.39107197  0.36965481    -0.18200
C954        C  0.16823843  0.42487751  0.35025360     0.10200
S955        S  0.02337906  0.44954158  0.37984939    -0.33200
S956        S  0.22192492  0.41128728  0.32963571    -0.33200
H957        H  0.21289581  0.36628343  0.32420343     0.28200
H958        H  0.01123859  0.40641104  0.36867524     0.28200
H959        H  0.09178882  0.50497775  0.35569373     0.18800
H960        H  0.15641268  0.35889077  0.37430649     0.18800
C961        C  0.09461997  0.11702889  0.60581351    -0.07000
C962        C  0.14018356  0.11153317  0.60544217    -0.18200
C963        C  0.15954051  0.07581914  0.62789604     0.10200
C964        C  0.13235256  0.04681561  0.65414237    -0.07000
C965        C  0.08641704  0.05178431  0.65017905    -0.18200
C966        C  0.06774230  0.08628003  0.62788801     0.10200
S967        S  0.21656535  0.06542624  0.61612717    -0.33200
S968        S  0.00887258  0.09033844  0.63087153    -0.33200
H969        H  0.00904881  0.13591626  0.63710409     0.28200
H970        H  0.22643176  0.10506827  0.59353401     0.28200
H971        H  0.16020347  0.13408199  0.58572585     0.18800
H972        H  0.06405950  0.03020906  0.66780102     0.18800
C973        C  0.85516302  0.04488026  0.66804024    -0.07000
C974        C  0.86134417  0.04107800  0.62187759    -0.18200
C975        C  0.88091078  0.07370879  0.59546287     0.10200
C976        C  0.89184229  0.11470196  0.61342192    -0.07000
C977        C  0.87787192  0.12239790  0.65676170    -0.18200
C978        C  0.85786168  0.08889252  0.68342255     0.10200
S979        S  0.89054476  0.05961828  0.53891036    -0.33200
S980        S  0.83456427  0.10432754  0.73534934    -0.33200
H981        H  0.85034053  0.14795367  0.73530093     0.28200
H982        H  0.87977207  0.10073981  0.52119742     0.28200
H983        H  0.85199997  0.01143648  0.60520670     0.18800
H984        H  0.88283450  0.15484759  0.66987150     0.18800
C985        C  0.89278610  0.11951422  0.39388167    -0.07000
C986        C  0.86023745  0.09108998  0.41094208    -0.18200
C987        C  0.83927986  0.05984117  0.38434081     0.10200
C988        C  0.85415245  0.05376082  0.34003984    -0.07000
C989        C  0.88780139  0.08279275  0.32480057    -0.18200
C990        C  0.90366155  0.11741303  0.34911882     0.10200
S991        S  0.79477028  0.02762740  0.40860964    -0.33200
S992        S  0.93695019  0.15745791  0.31895052    -0.33200
H993        H  0.95795824  0.17788424  0.35350386     0.28200
H994        H  0.79460005  0.04688527  0.45016927     0.28200
H995        H  0.85052721  0.09427100  0.44491948     0.18800
H996        H  0.90401727  0.07906511  0.29381733     0.18800
C997        C  0.13152464  0.05398324  0.33593136    -0.07000
C998        C  0.08538860  0.05493010  0.34183612    -0.18200
C999        C  0.06486441  0.08266851  0.37112647     0.10200
C1000       C  0.09019274  0.11222489  0.39560070    -0.07000
C1001       C  0.13592739  0.10965067  0.39313819    -0.18200
C1002       C  0.15677528  0.07923012  0.36610343     0.10200
S1003       S  0.00611199  0.07812412  0.37514648    -0.33200
S1004       S  0.21367932  0.07038728  0.37779944    -0.33200
H1005       H  0.20445374  0.05717453  0.42136074     0.28200
H1006       H  0.99947469  0.12252966  0.38309584     0.28200
H1007       H  0.06461161  0.03386787  0.32242891     0.18800
H1008       H  0.15563072  0.13022232  0.41406712     0.18800
C1009       C  0.98861718  0.72978668  0.28876262    -0.07000
C1010       C  0.95736913  0.74832094  0.26128053    -0.18200
C1011       C  0.95392624  0.73705178  0.21680645     0.10200
C1012       C  0.98457187  0.70752741  0.19706677    -0.07000
C1013       C  0.01526757  0.68844420  0.22579164    -0.18200
C1014       C  0.01604191  0.69758316  0.27084712     0.10200
S1015       S  0.91118818  0.76400779  0.18638307    -0.33200
S1016       S  0.04883755  0.66267727  0.30453611    -0.33200
H1017       H  0.01823220  0.65944786  0.33923604     0.28200
H1018       H  0.88515428  0.77584372  0.22246318     0.28200
H1019       H  0.93552973  0.77236150  0.27480846     0.18800
H1020       H  0.03726170  0.66371098  0.21417600     0.18800
C1021       C  0.99396970  0.73549731  0.70010045    -0.07000
C1022       C  0.97707899  0.76455442  0.73060360    -0.18200
C1023       C  0.97578035  0.75405373  0.77591349     0.10200
C1024       C  0.99884574  0.71654919  0.79275944    -0.07000
C1025       C  0.01174794  0.68591464  0.76077627    -0.18200
C1026       C  0.00646270  0.69379313  0.71562061     0.10200
S1027       S  0.94109734  0.78736027  0.80984257    -0.33200
S1028       S  0.00899597  0.64735529  0.68011877    -0.33200
H1029       H  0.97634678  0.66200744  0.65149097     0.28200
H1030       H  0.92182463  0.81226148  0.77610926     0.28200
H1031       H  0.96323030  0.79490990  0.71858061     0.18800
H1032       H  0.02396396  0.65426314  0.77026582     0.18800
C1033       C  0.10525436  0.61609560  0.40247936    -0.07000
C1034       C  0.12896902  0.62559065  0.36363637    -0.18200
C1035       C  0.15286718  0.59333013  0.34164702     0.10200
C1036       C  0.15976427  0.55191180  0.36338319    -0.07000
C1037       C  0.14222294  0.54691902  0.40638700    -0.18200
C1038       C  0.11096568  0.57471879  0.42291652     0.10200
S1039       S  0.17441737  0.60880305  0.28784828    -0.33200
S1040       S  0.07754196  0.55167599  0.46712342    -0.33200
H1041       H  0.07919668  0.58832614  0.49349566     0.28200
H1042       H  0.15105069  0.64779561  0.28168980     0.28200
H1043       H  0.12717513  0.65816675  0.34926931     0.18800
H1044       H  0.14796208  0.51704014  0.42505927     0.18800
C1045       C  0.11135303  0.62416132  0.59181006    -0.07000
C1046       C  0.11104088  0.62235001  0.63758952    -0.18200
C1047       C  0.13456274  0.59084266  0.66152509     0.10200
C1048       C  0.15935188  0.55895179  0.63807236    -0.07000
C1049       C  0.16075157  0.56372100  0.59151293    -0.18200
C1050       C  0.14091489  0.59812037  0.56921946     0.10200
S1051       S  0.12777599  0.59220951  0.72064564    -0.33200
S1052       S  0.16152221  0.61197460  0.51496623    -0.33200
H1053       H  0.14728102  0.65560907  0.51351736     0.28200
H1054       H  0.10755116  0.63321453  0.72374605     0.28200
H1055       H  0.09240411  0.64649423  0.65464861     0.18800
H1056       H  0.18088144  0.54216431  0.57228702     0.18800
C1057       C  0.88446056  0.61641818  0.59472369    -0.07000
C1058       C  0.89913758  0.58957403  0.62885482    -0.18200
C1059       C  0.87135923  0.55779728  0.64878575     0.10200
C1060       C  0.82763633  0.55157629  0.63300220    -0.07000
C1061       C  0.81461186  0.57981305  0.59801436    -0.18200
C1062       C  0.84126445  0.61255212  0.58023893     0.10200
S1063       S  0.89359455  0.52518891  0.69313642    -0.33200
S1064       S  0.81744458  0.64614947  0.53711877    -0.33200
H1065       H  0.85547588  0.66529342  0.51859914     0.28200
H1066       H  0.93768305  0.53866966  0.68820976     0.28200
H1067       H  0.93246691  0.59377086  0.63994586     0.18800
H1068       H  0.78449205  0.57561577  0.58065147     0.18800
C1069       C  0.88056091  0.60886875  0.40198488    -0.07000
C1070       C  0.87294417  0.61243514  0.35671766    -0.18200
C1071       C  0.84868302  0.58057023  0.33314188     0.10200
C1072       C  0.82694485  0.54435030  0.35615826    -0.07000
C1073       C  0.83327161  0.54324524  0.40232024    -0.18200
C1074       C  0.86039524  0.57293257  0.42469537     0.10200
S1075       S  0.85101449  0.58754292  0.27405423    -0.33200
S1076       S  0.86728494  0.56098243  0.48223210    -0.33200
H1077       H  0.88604802  0.60059624  0.49468033     0.28200
H1078       H  0.88813541  0.61546404  0.27134572     0.28200
H1079       H  0.88802625  0.64000020  0.33911750     0.18800
H1080       H  0.81781312  0.51709925  0.42166423     0.18800
C1081       C  0.08911416  0.90818671  0.37841436    -0.07000
C1082       C  0.07670151  0.91391157  0.33457189    -0.18200
C1083       C  0.09390661  0.94854814  0.30768565     0.10200
C1084       C  0.12989599  0.97516062  0.32288581    -0.07000
C1085       C  0.14359227  0.96619375  0.36644395    -0.18200
C1086       C  0.12235852  0.93585286  0.39455487     0.10200
S1087       S  0.06431118  0.95929839  0.25766983    -0.33200
S1088       S  0.13810446  0.93745245  0.45124656    -0.33200
H1089       H  0.11729789  0.89882858  0.46651986     0.28200
H1090       H  0.02451666  0.93872931  0.27056075     0.28200
H1091       H  0.05079933  0.89289154  0.32228021     0.18800
H1092       H  0.16941624  0.98614502  0.38028645     0.18800
C1093       C  0.89252747  0.90446205  0.39113821    -0.07000
C1094       C  0.84760674  0.90299640  0.38201280    -0.18200
C1095       C  0.82754333  0.93735704  0.35869079     0.10200
C1096       C  0.85371363  0.97345195  0.34244816    -0.07000
C1097       C  0.89841318  0.97464696  0.35452872    -0.18200
C1098       C  0.91801747  0.94093413  0.37727013     0.10200
S1099       S  0.76882603  0.93430390  0.35543052    -0.33200
S1100       S  0.97653328  0.94478524  0.38589788    -0.33200
H1101       H  0.98627554  0.97718879  0.35370246     0.28200
H1102       H  0.76895978  0.89124428  0.33953334     0.28200
H1103       H  0.82781441  0.87557822  0.39444482     0.18800
H1104       H  0.91927695  0.00170820  0.34346525     0.18800
C1105       C  0.89462510  0.90171019  0.60543738    -0.07000
C1106       C  0.92280117  0.93034352  0.62651366    -0.18200
C1107       C  0.90748496  0.96101108  0.65612779     0.10200
C1108       C  0.86155722  0.96266043  0.66763046    -0.07000
C1109       C  0.83354714  0.93202731  0.64710124    -0.18200
C1110       C  0.84932787  0.90304795  0.61535302     0.10200
S1111       S  0.94831824  0.99975644  0.67496009    -0.33200
S1112       S  0.80939125  0.87148243  0.58606295    -0.33200
H1113       H  0.83435829  0.86738307  0.54742575     0.28200
H1114       H  0.97892087  0.99480808  0.64068390     0.28200
H1115       H  0.95761265  0.92863978  0.61956151     0.18800
H1116       H  0.79889936  0.93114161  0.65436153     0.18800
C1117       C  0.09088568  0.90591531  0.60216864    -0.07000
C1118       C  0.06814700  0.91642133  0.64016034    -0.18200
C1119       C  0.08502046  0.94601465  0.67064641     0.10200
C1120       C  0.12671524  0.96798339  0.66203693    -0.07000
C1121       C  0.14742542  0.95830944  0.62156556    -0.18200
C1122       C  0.13239427  0.92507866  0.59417647     0.10200
S1123       S  0.04733255  0.95715691  0.71518620    -0.33200
S1124       S  0.16962512  0.90715712  0.55210566    -0.33200
H1125       H  0.14664785  0.86931290  0.53941483     0.28200
H1126       H  0.02461728  0.91657659  0.71573797     0.28200
H1127       H  0.03612405  0.90131995  0.64568715     0.18800
H1128       H  0.17779207  0.97514821  0.61257772     0.18800
C1129       C  0.29370410  0.80569672  0.49551008    -0.07000
C1130       C  0.26826353  0.82086417  0.45958631    -0.18200
C1131       C  0.22287667  0.81236717  0.45604863     0.10200
C1132       C  0.20009808  0.78767263  0.48908454    -0.07000
C1133       C  0.22447099  0.77278482  0.52492746    -0.18200
C1134       C  0.26997755  0.78049697  0.52839269     0.10200
S1135       S  0.19676530  0.83387344  0.40768360    -0.33200
S1136       S  0.29638194  0.75474167  0.57452437    -0.33200
H1137       H  0.25870680  0.74479138  0.59991630     0.28200
H1138       H  0.15877799  0.84644982  0.42985387     0.28200
H1139       H  0.28357310  0.83792649  0.43207290     0.18800
H1140       H  0.20776179  0.75313885  0.55001609     0.18800
C1141       C  0.36036766  0.76010206  0.48953908    -0.07000
C1142       C  0.33997472  0.73550286  0.45537352    -0.18200
C1143       C  0.35329945  0.69319878  0.44350267     0.10200
C1144       C  0.38653893  0.67265384  0.46711897    -0.07000
C1145       C  0.40464767  0.69506575  0.50267473    -0.18200
C1146       C  0.39110824  0.73638091  0.51591052     0.10200
S1147       S  0.32757986  0.66791659  0.39744245    -0.33200
S1148       S  0.41465256  0.75090015  0.56826123    -0.33200
H1149       H  0.37935427  0.77171059  0.58754200     0.28200
H1150       H  0.36682477  0.65236846  0.37948726     0.28200
H1151       H  0.31569841  0.75084215  0.43484105     0.18800
H1152       H  0.42860193  0.67850682  0.52269500     0.18800
C1153       C  0.20005231  0.23402172  0.50620253    -0.07000
C1154       C  0.21205953  0.19665262  0.48325552    -0.18200
C1155       C  0.25505964  0.18078926  0.48376343     0.10200
C1156       C  0.28937902  0.20614813  0.50318576    -0.07000
C1157       C  0.27572354  0.24077429  0.53032543    -0.18200
C1158       C  0.23201667  0.25490471  0.53199925     0.10200
S1159       S  0.26210124  0.12608966  0.46340598    -0.33200
S1160       S  0.21798792  0.30017592  0.56648695    -0.33200
H1161       H  0.26111991  0.31433394  0.57502105     0.28200
H1162       H  0.21973962  0.11098121  0.47527252     0.28200
H1163       H  0.18688619  0.17835458  0.46634408     0.18800
H1164       H  0.29999434  0.25809825  0.54918025     0.18800
C1165       C  0.41761101  0.31697029  0.46506066    -0.07000
C1166       C  0.43925906  0.27845365  0.47539300    -0.18200
C1167       C  0.41584753  0.23967564  0.48681225     0.10200
C1168       C  0.36855421  0.23895887  0.48757829    -0.07000
C1169       C  0.34832506  0.27715889  0.47078274    -0.18200
C1170       C  0.37222181  0.31483061  0.45848364     0.10200
S1171       S  0.44865176  0.19351531  0.50274470    -0.33200
S1172       S  0.34328141  0.35919705  0.43270268    -0.33200
H1173       H  0.38031875  0.38003122  0.41355416     0.28200
H1174       H  0.48542602  0.21765599  0.51630397     0.28200
H1175       H  0.47463529  0.27933985  0.47656861     0.18800
H1176       H  0.31351490  0.27811055  0.46532075     0.18800
C1177       C  0.69487869  0.21748289  0.99101122    -0.07000
C1178       C  0.67253897  0.24734719  0.96326193    -0.18200
C1179       C  0.68227955  0.29234001  0.96186821     0.10200
C1180       C  0.71215676  0.31036956  0.99178146    -0.07000
C1181       C  0.73258076  0.28218387  0.02162937    -0.18200
C1182       C  0.72606839  0.23645178  0.02079890     0.10200
S1183       S  0.65730241  0.32571431  0.91996155    -0.33200
S1184       S  0.76199225  0.20615833  0.05715347    -0.33200
H1185       H  0.74466850  0.16367781  0.05432984     0.28200
H1186       H  0.63909822  0.29171490  0.89501358     0.28200
H1187       H  0.64915961  0.23571047  0.93981766     0.18800
H1188       H  0.75602341  0.29581162  0.04436665     0.18800
C1189       C  0.73793118  0.15055510  0.97165257    -0.07000
C1190       C  0.74746910  0.10563069  0.97624488    -0.18200
C1191       C  0.78525628  0.08775366  0.95829435     0.10200
C1192       C  0.82098836  0.11519668  0.94759723    -0.07000
C1193       C  0.81382523  0.15982952  0.94243511    -0.18200
C1194       C  0.77172858  0.17677688  0.94880897     0.10200
S1195       S  0.78628399  0.02988941  0.94710790    -0.33200
S1196       S  0.76536169  0.22961543  0.92218608    -0.33200
H1197       H  0.72652648  0.21810527  0.90070651     0.28200
H1198       H  0.82222365  0.03227626  0.91795359     0.28200
H1199       H  0.72571365  0.08340784  0.99283009     0.18800
H1200       H  0.84070009  0.18122083  0.93175494     0.18800
C1201       C  0.29748697  0.21715628  0.99207421    -0.07000
C1202       C  0.27161188  0.23117638  0.02806276    -0.18200
C1203       C  0.25680977  0.27421110  0.03226225     0.10200
C1204       C  0.26766288  0.30620192  0.99985550    -0.07000
C1205       C  0.29426178  0.29364164  0.96468878    -0.18200
C1206       C  0.30796764  0.25019361  0.95909889     0.10200
S1207       S  0.22289343  0.28513031  0.07924651    -0.33200
S1208       S  0.33017579  0.23890017  0.90529141    -0.33200
H1209       H  0.32524482  0.28035603  0.88508472     0.28200
H1210       H  0.19254487  0.31018977  0.05554769     0.28200
H1211       H  0.26138318  0.20735316  0.05305798     0.18800
H1212       H  0.30341993  0.31830979  0.94021081     0.18800
C1213       C  0.25772087  0.14567722  0.99026797    -0.07000
C1214       C  0.24582869  0.11338097  0.02226533    -0.18200
C1215       C  0.20755425  0.08835246  0.01916436     0.10200
C1216       C  0.17863825  0.09675099  0.98458230    -0.07000
C1217       C  0.18551823  0.13356661  0.95780845    -0.18200
C1218       C  0.22377679  0.15895732  0.96051067     0.10200
S1219       S  0.19623576  0.04864817  0.06259069    -0.33200
S1220       S  0.22853188  0.20287064  0.92027690    -0.33200
H1221       H  0.18340149  0.21083897  0.91637124     0.28200
H1222       H  0.16947186  0.02087924  0.03813988     0.28200
H1223       H  0.26629025  0.10624580  0.05000612     0.18800
H1224       H  0.16071264  0.14213989  0.93405077     0.18800
C1225       C  0.69751875  0.81393370  0.50199413    -0.07000
C1226       C  0.72092763  0.80402509  0.54059821    -0.18200
C1227       C  0.76198774  0.78359382  0.54039562     0.10200
C1228       C  0.78573461  0.77926598  0.50054274    -0.07000
C1229       C  0.76584280  0.79605577  0.46252831    -0.18200
C1230       C  0.72514716  0.81758853  0.46399307     0.10200
S1231       S  0.78048552  0.76281121  0.59272406    -0.33200
S1232       S  0.72626120  0.86682971  0.43092187    -0.33200
H1233       H  0.73894707  0.84461399  0.39295681     0.28200
H1234       H  0.79668283  0.72385443  0.57584514     0.28200
H1235       H  0.70612067  0.80980723  0.57222435     0.18800
H1236       H  0.78538477  0.79905425  0.43277025     0.18800
C1237       C  0.61979560  0.77444534  0.50380680    -0.07000
C1238       C  0.58201533  0.76979420  0.47660373    -0.18200
C1239       C  0.55334139  0.73354729  0.47873357     0.10200
C1240       C  0.56102707  0.69953787  0.50878614    -0.07000
C1241       C  0.59823698  0.70150802  0.53431879    -0.18200
C1242       C  0.62735234  0.73729918  0.53295656     0.10200
S1243       S  0.50873403  0.73239897  0.44039007    -0.33200
S1244       S  0.66653143  0.73374331  0.57644690    -0.33200
H1245       H  0.67505167  0.68866729  0.57244435     0.28200
H1246       H  0.48688973  0.69430742  0.45566837     0.28200
H1247       H  0.57208133  0.79492674  0.45379374     0.18800
H1248       H  0.60460648  0.67382037  0.55603898     0.18800
C1249       C  0.68883767  0.80807906  0.99960450    -0.07000
C1250       C  0.71361293  0.79425344  0.96274544    -0.18200
C1251       C  0.72739600  0.75069760  0.95799424     0.10200
C1252       C  0.71558517  0.71886941  0.99035404    -0.07000
C1253       C  0.68724844  0.73108991  0.02432615    -0.18200
C1254       C  0.67246041  0.77415777  0.02886368     0.10200
S1255       S  0.76309699  0.73774433  0.91254589    -0.33200
S1256       S  0.62859237  0.78106565  0.06841972    -0.33200
H1257       H  0.63232761  0.74096583  0.09145911     0.28200
H1258       H  0.76341516  0.77938841  0.89189669     0.28200
H1259       H  0.72505750  0.81876634  0.93904475     0.18800
H1260       H  0.67507730  0.70583357  0.04687557     0.18800
C1261       C  0.72629894  0.88437801  0.01216408    -0.07000
C1262       C  0.72405183  0.93058153  0.01945892    -0.18200
C1263       C  0.76095247  0.95664100  0.02966671     0.10200
C1264       C  0.80279785  0.93814339  0.02737014    -0.07000
C1265       C  0.80518451  0.89250270  0.02490706    -0.18200
C1266       C  0.76860094  0.86532031  0.01958759     0.10200
S1267       S  0.75183114  0.01132638  0.04876061    -0.33200
S1268       S  0.78025235  0.80823777  0.03154661    -0.33200
H1269       H  0.82065929  0.80776498  0.00889499     0.28200
H1270       H  0.78359097  0.00901686  0.08174822     0.28200
H1271       H  0.69261306  0.94654299  0.01848559     0.18800
H1272       H  0.83690046  0.87741893  0.02867869     0.18800
C1273       C  0.29077908  0.80769889  0.00891958    -0.07000
C1274       C  0.24743320  0.79120146  0.00191771    -0.18200
C1275       C  0.23731493  0.74641840  0.99988761     0.10200
C1276       C  0.27076045  0.71607772  0.00426343    -0.07000
C1277       C  0.31420787  0.73105175  0.00718168    -0.18200
C1278       C  0.32495474  0.77621986  0.00668716     0.10200
S1279       S  0.18140866  0.72804284  0.99152224    -0.33200
S1280       S  0.38247936  0.79151978  0.00590871    -0.33200
H1281       H  0.39909285  0.74981274  0.99684850     0.28200
H1282       H  0.16160481  0.76907401  0.99628477     0.28200
H1283       H  0.22052854  0.81305952  0.99684510     0.18800
H1284       H  0.33986482  0.70711727  0.00998694     0.18800
C1285       C  0.17023874  0.92385531  0.02935535    -0.07000
C1286       C  0.18243624  0.89232532  0.06011118    -0.18200
C1287       C  0.22340952  0.87175988  0.05721768     0.10200
C1288       C  0.25336838  0.88181977  0.02132440    -0.07000
C1289       C  0.24221938  0.91704653  0.99392784    -0.18200
C1290       C  0.20188875  0.93746964  0.99679242     0.10200
S1291       S  0.23409215  0.83085089  0.09884285    -0.33200
S1292       S  0.19237960  0.97953069  0.95569585    -0.33200
H1293       H  0.23640265  0.99196188  0.94781826     0.28200
H1294       H  0.20288722  0.84445848  0.12978877     0.28200
H1295       H  0.15879471  0.88197229  0.08503593     0.18800
H1296       H  0.26515962  0.92932001  0.96951935     0.18800
C1297       C  0.29188372  0.01430453  0.27379184    -0.07000
C1298       C  0.26856174  0.05317972  0.26678967    -0.18200
C1299       C  0.22398819  0.05674581  0.27789889     0.10200
C1300       C  0.20019812  0.01986898  0.29639277    -0.07000
C1301       C  0.22455623  0.98127155  0.30427143    -0.18200
C1302       C  0.26911336  0.97811168  0.29346830     0.10200
S1303       S  0.19911470  0.10970138  0.26896682    -0.33200
S1304       S  0.29419781  0.92623389  0.30573391    -0.33200
H1305       H  0.32733871  0.94550787  0.33102039     0.28200
H1306       H  0.23804272  0.13467048  0.26380520     0.28200
H1307       H  0.28535138  0.08135883  0.25203697     0.18800
H1308       H  0.20882741  0.95160670  0.31669027     0.18800
C1309       C  0.70305373  0.02272733  0.26593580    -0.07000
C1310       C  0.72838769  0.98672127  0.25428879    -0.18200
C1311       C  0.77202768  0.98227016  0.26795363     0.10200
C1312       C  0.79106094  0.01355904  0.29727747    -0.07000
C1313       C  0.76516599  0.05025528  0.30731975    -0.18200
C1314       C  0.72295293  0.05583689  0.29118534     0.10200
S1315       S  0.80066440  0.93426463  0.24936298    -0.33200
S1316       S  0.69748263  0.10710965  0.30361184    -0.33200
H1317       H  0.65985345  0.08660643  0.32115634     0.28200
H1318       H  0.76957804  0.91943462  0.21903680     0.28200
H1319       H  0.71359621  0.96157024  0.23434943     0.18800
H1320       H  0.77816220  0.07695117  0.32621680     0.18800
C1321       C  0.40145322  0.90603776  0.39731755    -0.07000
C1322       C  0.41077197  0.86185445  0.39227174    -0.18200
C1323       C  0.39188154  0.82854057  0.41866044     0.10200
C1324       C  0.36232570  0.83954484  0.45390771    -0.07000
C1325       C  0.35094619  0.88467228  0.45609284    -0.18200
C1326       C  0.36952491  0.91745683  0.42845726     0.10200
S1327       S  0.41332816  0.77525469  0.40659199    -0.33200
S1328       S  0.34951706  0.97238024  0.43413893    -0.33200
H1329       H  0.36180242  0.98803324  0.39215935     0.28200
H1330       H  0.41814775  0.78182647  0.36099618     0.28200
H1331       H  0.43470099  0.85333606  0.36744122     0.18800
H1332       H  0.32765534  0.89477642  0.48080531     0.18800
C1333       C  0.59651548  0.90660688  0.39467913    -0.07000
C1334       C  0.58304592  0.91331998  0.43780275    -0.18200
C1335       C  0.59370116  0.88461339  0.47197662     0.10200
C1336       C  0.62621612  0.85126682  0.46635861    -0.07000
C1337       C  0.63517823  0.84161035  0.42197984    -0.18200
C1338       C  0.62363457  0.86998992  0.38697962     0.10200
S1339       S  0.55231864  0.88513506  0.51423077    -0.33200
S1340       S  0.64788119  0.85903721  0.33441971    -0.33200
H1341       H  0.66161396  0.90289288  0.32691658     0.28200
H1342       H  0.54868480  0.83940184  0.51630753     0.28200
H1343       H  0.55950770  0.93864830  0.44457386     0.18800
H1344       H  0.65369568  0.81261842  0.41454514     0.18800
C1345       C  0.35276742  0.16489662  0.46242790    -0.07000
C1346       C  0.37986224  0.12869742  0.47164183    -0.18200
C1347       C  0.39995596  0.10431648  0.43969003     0.10200
C1348       C  0.39377873  0.11539988  0.39501130    -0.07000
C1349       C  0.36425418  0.14878811  0.38456786    -0.18200
C1350       C  0.34405296  0.17379265  0.41709687     0.10200
S1351       S  0.43594687  0.06226494  0.46055433    -0.33200
S1352       S  0.30726472  0.21628968  0.39890154    -0.33200
H1353       H  0.31385487  0.21252868  0.35346469     0.28200
H1354       H  0.42000602  0.02948453  0.43316445     0.28200
H1355       H  0.39071032  0.12100308  0.50413809     0.18800
H1356       H  0.35804743  0.15645478  0.35047056     0.18800
C1357       C  0.48890441  0.31108830  0.19753734    -0.07000
C1358       C  0.48984314  0.29666336  0.24239804    -0.18200
C1359       C  0.49031867  0.25273876  0.25517039     0.10200
C1360       C  0.49357066  0.22102383  0.22301177    -0.07000
C1361       C  0.49443151  0.23348694  0.17875551    -0.18200
C1362       C  0.49094713  0.27753636  0.16532627     0.10200
S1363       S  0.48884418  0.24005097  0.31341387    -0.33200
S1364       S  0.48926485  0.28877528  0.10688674    -0.33200
H1365       H  0.49641528  0.24591178  0.09234151     0.28200
H1366       H  0.47482424  0.19604425  0.31168741     0.28200
H1367       H  0.49160567  0.31891130  0.26930494     0.18800
H1368       H  0.49710422  0.20810298  0.15453784     0.18800
C1369       C  0.50148814  0.81413294  0.21970461    -0.07000
C1370       C  0.46658410  0.79700407  0.19508494    -0.18200
C1371       C  0.46625460  0.75360441  0.17948926     0.10200
C1372       C  0.50025152  0.72454775  0.19193749    -0.07000
C1373       C  0.53787753  0.74415200  0.21090610    -0.18200
C1374       C  0.53860560  0.78746482  0.22542490     0.10200
S1375       S  0.42388027  0.73925166  0.14160581    -0.33200
S1376       S  0.58583955  0.80376989  0.25635991    -0.33200
H1377       H  0.56094234  0.82112573  0.29086565     0.28200
H1378       H  0.42530398  0.78024959  0.11970760     0.28200
H1379       H  0.43930369  0.81783218  0.18762397     0.18800
H1380       H  0.56573097  0.72395866  0.21877444     0.18800
C1381       C  0.66736585  0.14200083  0.02549650    -0.07000
C1382       C  0.65809327  0.16633733  0.06398995    -0.18200
C1383       C  0.63061538  0.15108659  0.09829042     0.10200
C1384       C  0.61109782  0.10898543  0.09675644    -0.07000
C1385       C  0.62047817  0.08325762  0.06044027    -0.18200
C1386       C  0.64704148  0.09844163  0.02492518     0.10200
S1387       S  0.61901396  0.18924005  0.14137467    -0.33200
S1388       S  0.64809193  0.06178412  0.97829431    -0.33200
H1389       H  0.62648605  0.02489416  0.99720535     0.28200
H1390       H  0.57409941  0.17844589  0.14425969     0.28200
H1391       H  0.66910867  0.19969059  0.06724479     0.18800
H1392       H  0.60557411  0.05083367  0.05951339     0.18800
C1393       C  0.59962859  0.91698670  0.10601827    -0.07000
C1394       C  0.63854288  0.89587133  0.11719118    -0.18200
C1395       C  0.66324989  0.87337446  0.08622524     0.10200
C1396       C  0.65041795  0.87364015  0.04112579    -0.07000
C1397       C  0.61068449  0.89539929  0.03139623    -0.18200
C1398       C  0.58457347  0.91432446  0.06283496     0.10200
S1399       S  0.71090911  0.84538172  0.10649241    -0.33200
S1400       S  0.53207059  0.93384696  0.04454945    -0.33200
H1401       H  0.50868804  0.91355854  0.07960575     0.28200
H1402       H  0.69675697  0.84084803  0.15039844     0.28200
H1403       H  0.65031758  0.89738919  0.15049938     0.18800
H1404       H  0.59850394  0.89994724  0.99897329     0.18800
C1405       C  0.38154695  0.91455879  0.11652170    -0.07000
C1406       C  0.37515326  0.86889441  0.11747292    -0.18200
C1407       C  0.34459666  0.84818528  0.08992653     0.10200
C1408       C  0.32411064  0.87377646  0.05626402    -0.07000
C1409       C  0.32814186  0.92016992  0.05985644    -0.18200
C1410       C  0.35359933  0.93999617  0.09126547     0.10200
S1411       S  0.33057190  0.79168943  0.10350972    -0.33200
S1412       S  0.34455012  0.99700318  0.10153252    -0.33200
H1413       H  0.35040410  0.99426914  0.14717349     0.28200
H1414       H  0.34195439  0.79353996  0.14805094     0.28200
H1415       H  0.39290016  0.84960367  0.14108886     0.18800
H1416       H  0.31138046  0.94190536  0.03749340     0.18800
C1417       C  0.38861776  0.11696668  0.10012670    -0.07000
C1418       C  0.37960768  0.09144846  0.06367318    -0.18200
C1419       C  0.34968995  0.10405202  0.03148108     0.10200
C1420       C  0.33338035  0.14814010  0.02980331    -0.07000
C1421       C  0.34737632  0.17565444  0.06448095    -0.18200
C1422       C  0.37196542  0.16001041  0.10034376     0.10200
S1423       S  0.33194745  0.06103154  0.99502086    -0.33200
S1424       S  0.38274851  0.19788989  0.14379678    -0.33200
H1425       H  0.42379673  0.18093169  0.15418308     0.28200
H1426       H  0.36172338  0.02834207  0.00707641     0.28200
H1427       H  0.39456734  0.05971003  0.06159843     0.18800
H1428       H  0.33996947  0.21003308  0.06466610     0.18800
C1429       C  0.69864896  0.21299767  0.49413447    -0.07000
C1430       C  0.72642775  0.18649554  0.52007567    -0.18200
C1431       C  0.77166723  0.19528437  0.52312759     0.10200
C1432       C  0.79124636  0.22972867  0.49778304    -0.07000
C1433       C  0.76559224  0.25072032  0.46639092    -0.18200
C1434       C  0.72037459  0.24249087  0.46348605     0.10200
S1435       S  0.80249978  0.16017960  0.55890775    -0.33200
S1436       S  0.69217487  0.27278259  0.42148349    -0.33200
H1437       H  0.72869644  0.28126779  0.39393900     0.28200
H1438       H  0.84075753  0.16268593  0.53314340     0.28200
H1439       H  0.71354373  0.15857197  0.53844954     0.18800
H1440       H  0.78083555  0.27529044  0.44493071     0.18800
C1441       C  0.63282953  0.19246940  0.45273837    -0.07000
C1442       C  0.64876575  0.14959722  0.44455570    -0.18200
C1443       C  0.63051087  0.12147956  0.41366294     0.10200
C1444       C  0.59730314  0.13689149  0.38593202    -0.07000
C1445       C  0.58613774  0.18152204  0.38812704    -0.18200
C1446       C  0.60252035  0.20958758  0.42105235     0.10200
S1447       S  0.65031315  0.06573405  0.41420955    -0.33200
S1448       S  0.57659074  0.26254871  0.42207432    -0.33200
H1449       H  0.60966835  0.28738631  0.44130029     0.28200
H1450       H  0.62648079  0.04853042  0.37932950     0.28200
H1451       H  0.67271919  0.13545470  0.46637264     0.18800
H1452       H  0.56170719  0.19386630  0.36574083     0.18800
C1453       C  0.63026549  0.25632855  0.51595926    -0.07000
C1454       C  0.58474061  0.26098682  0.52387748    -0.18200
C1455       C  0.56710077  0.29985976  0.53988270     0.10200
C1456       C  0.59380549  0.33747814  0.54323427    -0.07000
C1457       C  0.63883520  0.33302333  0.53999908    -0.18200
C1458       C  0.65740608  0.29204447  0.53194529     0.10200
S1459       S  0.51026310  0.30049448  0.55622257    -0.33200
S1460       S  0.71170119  0.28640774  0.55444582    -0.33200
H1461       H  0.72548698  0.33037583  0.54794715     0.28200
H1462       H  0.51371204  0.33784248  0.58252383     0.28200
H1463       H  0.56247802  0.23402916  0.51820722     0.18800
H1464       H  0.65946899  0.36156493  0.54569787     0.18800
C1465       C  0.28670176  0.01150839  0.72829279    -0.07000
C1466       C  0.26810874  0.97259091  0.71255564    -0.18200
C1467       C  0.22499998  0.96926105  0.69679243     0.10200
C1468       C  0.19704923  0.00708221  0.69710291    -0.07000
C1469       C  0.21585481  0.04567707  0.71520435    -0.18200
C1470       C  0.25937661  0.04853344  0.73001678     0.10200
S1471       S  0.20955440  0.91451272  0.67928364    -0.33200
S1472       S  0.27684463  0.10029470  0.75213830    -0.33200
H1473       H  0.29779768  0.08107284  0.78837295     0.28200
H1474       H  0.23904637  0.89062067  0.70522185     0.28200
H1475       H  0.28811847  0.94374311  0.71213897     0.18800
H1476       H  0.19604027  0.07469481  0.71772876     0.18800
C1477       C  0.69868748  0.00429078  0.71951429    -0.07000
C1478       C  0.72666632  0.00391361  0.75499388    -0.18200
C1479       C  0.77235845  0.00611769  0.75000820     0.10200
C1480       C  0.79263105  0.00245655  0.70692685    -0.07000
C1481       C  0.76327369  0.00437465  0.67129021    -0.18200
C1482       C  0.71739284  0.00632491  0.67689933     0.10200
S1483       S  0.79911212  0.02278870  0.79995278    -0.33200
S1484       S  0.68567054  0.01309762  0.62781252    -0.33200
H1485       H  0.64449710  0.01825021  0.64718148     0.28200
H1486       H  0.77183627  0.99855726  0.82927431     0.28200
H1487       H  0.71218495  0.00554781  0.78740233     0.18800
H1488       H  0.77628766  0.00523939  0.63817287     0.18800
C1489       C  0.39289363  0.12185959  0.60831647    -0.07000
C1490       C  0.40164460  0.16729875  0.60709685    -0.18200
C1491       C  0.37935053  0.19545931  0.57807011     0.10200
C1492       C  0.35077045  0.17672490  0.54657318    -0.07000
C1493       C  0.33391968  0.13413807  0.55713299    -0.18200
C1494       C  0.35583589  0.10608358  0.58613713     0.10200
S1495       S  0.38530965  0.25414011  0.58489540    -0.33200
S1496       S  0.33636274  0.05009588  0.59193036    -0.33200
H1497       H  0.34401312  0.04676490  0.63725029     0.28200
H1498       H  0.41025686  0.25258279  0.62337896     0.28200
H1499       H  0.42607140  0.18065442  0.62890203     0.18800
H1500       H  0.30784145  0.12013353  0.53814828     0.18800
C1501       C  0.59556878  0.11770355  0.60180446    -0.07000
C1502       C  0.57666408  0.11856544  0.56070697    -0.18200
C1503       C  0.59025385  0.14809331  0.52799225     0.10200
C1504       C  0.62795730  0.17673741  0.53422722    -0.07000
C1505       C  0.64471786  0.17743710  0.57723168    -0.18200
C1506       C  0.63086884  0.14723822  0.60994248     0.10200
S1507       S  0.55030137  0.15192446  0.48481654    -0.33200
S1508       S  0.66111644  0.14752949  0.66043262    -0.33200
H1509       H  0.66158803  0.10154787  0.66493210     0.28200
H1510       H  0.54247489  0.10643691  0.48135344     0.28200
H1511       H  0.54780092  0.09832750  0.55510646     0.18800
H1512       H  0.67007987  0.20107994  0.58527566     0.18800
C1513       C  0.63482749  0.84416962  0.54881732    -0.07000
C1514       C  0.60434973  0.82561821  0.57983806    -0.18200
C1515       C  0.58261051  0.85127200  0.61007360     0.10200
C1516       C  0.59231487  0.89637097  0.61133565    -0.07000
C1517       C  0.62721446  0.91379411  0.58651289    -0.18200
C1518       C  0.64971762  0.88805936  0.55633953     0.10200
S1519       S  0.53878553  0.82542745  0.64203991    -0.33200
S1520       S  0.69408152  0.91368623  0.52523347    -0.33200
H1521       H  0.69489609  0.95414356  0.54666000     0.28200
H1522       H  0.51089134  0.86171367  0.64189025     0.28200
H1523       H  0.59189886  0.79261698  0.57795455     0.18800
H1524       H  0.63556380  0.94809104  0.58963266     0.18800
C1525       C  0.39985329  0.89165038  0.60242372    -0.07000
C1526       C  0.42767554  0.87371322  0.57092807    -0.18200
C1527       C  0.41188078  0.84640504  0.53746283     0.10200
C1528       C  0.36607974  0.83486799  0.53453440    -0.07000
C1529       C  0.33852763  0.85443665  0.56616132    -0.18200
C1530       C  0.35468431  0.88197857  0.59921558     0.10200
S1531       S  0.45270330  0.82702966  0.49977139    -0.33200
S1532       S  0.31512502  0.90719213  0.63391763    -0.33200
H1533       H  0.33670037  0.94833185  0.63460865     0.28200
H1534       H  0.48102045  0.81422609  0.53357801     0.28200
H1535       H  0.46244666  0.88131687  0.57220608     0.18800
H1536       H  0.30341876  0.85064663  0.56442332     0.18800
C1537       C  0.49459631  0.29882520  0.80565908    -0.07000
C1538       C  0.53061044  0.28437817  0.77992899    -0.18200
C1539       C  0.53394179  0.24108025  0.76557464     0.10200
C1540       C  0.50122651  0.20988881  0.77784866    -0.07000
C1541       C  0.46925450  0.22212077  0.80850056    -0.18200
C1542       C  0.46626928  0.26518031  0.82388470     0.10200
S1543       S  0.57730192  0.22981780  0.72702246    -0.33200
S1544       S  0.42631583  0.27095088  0.86711490    -0.33200
H1545       H  0.44456837  0.30610697  0.88956275     0.28200
H1546       H  0.55026147  0.20621671  0.69833240     0.28200
H1547       H  0.55416347  0.30825489  0.76679884     0.18800
H1548       H  0.44606837  0.19748475  0.82091417     0.18800
C1549       C  0.49179716  0.80244725  0.77245904    -0.07000
C1550       C  0.45595730  0.77582323  0.76174809    -0.18200
C1551       C  0.45517116  0.73037762  0.77048551     0.10200
C1552       C  0.49099020  0.70976322  0.79262751    -0.07000
C1553       C  0.52727505  0.73752843  0.80215912    -0.18200
C1554       C  0.52778000  0.78278562  0.79355957     0.10200
S1555       S  0.40784994  0.70047707  0.75138517    -0.33200
S1556       S  0.57533136  0.81415284  0.81072089    -0.33200
H1557       H  0.59095547  0.78332384  0.84144418     0.28200
H1558       H  0.38773140  0.73443514  0.72759132     0.28200
H1559       H  0.42847622  0.79084158  0.74550170     0.18800
H1560       H  0.55718754  0.72425643  0.81469238     0.18800
C1561       C  0.33176519  0.15120446  0.94813785    -0.07000
C1562       C  0.37716041  0.16303555  0.94783946    -0.18200
C1563       C  0.40744565  0.14462241  0.91898022     0.10200
C1564       C  0.39249513  0.11449424  0.88808635    -0.07000
C1565       C  0.34805004  0.10568922  0.88466454    -0.18200
C1566       C  0.31762258  0.12147397  0.91427171     0.10200
S1567       S  0.46415684  0.16105841  0.92344051    -0.33200
S1568       S  0.26634424  0.09140041  0.91006112    -0.33200
H1569       H  0.26373655  0.09446317  0.86405994     0.28200
H1570       H  0.47749114  0.14889488  0.88123283     0.28200
H1571       H  0.38944560  0.18580252  0.97188847     0.18800
H1572       H  0.33743932  0.08211820  0.86050853     0.18800
C1573       C  0.38087478  0.90986010  0.89979548    -0.07000
C1574       C  0.33811721  0.89298644  0.89307850    -0.18200
C1575       C  0.31182275  0.87460676  0.92791231     0.10200
C1576       C  0.32689242  0.87522994  0.97230641    -0.07000
C1577       C  0.37116898  0.88989763  0.97718200    -0.18200
C1578       C  0.39781591  0.90537092  0.94247411     0.10200
S1579       S  0.25907027  0.85112930  0.91423488    -0.33200
S1580       S  0.45474575  0.91524105  0.95509218    -0.33200
H1581       H  0.47065831  0.89515789  0.91702306     0.28200
H1582       H  0.25601918  0.87024784  0.87210131     0.28200
H1583       H  0.32515445  0.89409605  0.86019919     0.18800
H1584       H  0.38741676  0.88720480  0.00834370     0.18800
C1585       C  0.61011845  0.91492644  0.89113437    -0.07000
C1586       C  0.59608986  0.87509450  0.90977193    -0.18200
C1587       C  0.62097822  0.85293638  0.94134055     0.10200
C1588       C  0.66070448  0.87282730  0.95755034    -0.07000
C1589       C  0.67750773  0.90926399  0.93293181    -0.18200
C1590       C  0.65255972  0.93079600  0.90092699     0.10200
S1591       S  0.59583200  0.80377281  0.96478637    -0.33200
S1592       S  0.67636981  0.97967207  0.87595906    -0.33200
H1593       H  0.65175727  0.97903630  0.83742042     0.28200
H1594       H  0.56872341  0.79377043  0.92913133     0.28200
H1595       H  0.56433672  0.86197793  0.90058497     0.18800
H1596       H  0.70972296  0.92267433  0.93900590     0.18800
C1597       C  0.65895226  0.15644033  0.94411504    -0.07000
C1598       C  0.67705933  0.14045936  0.90457205    -0.18200
C1599       C  0.65235096  0.11702730  0.87470789     0.10200
C1600       C  0.60712372  0.11034426  0.88259849    -0.07000
C1601       C  0.58735314  0.13131915  0.91768154    -0.18200
C1602       C  0.61185173  0.15564822  0.94753203     0.10200
S1603       S  0.68212195  0.09467278  0.82883971    -0.33200
S1604       S  0.57907473  0.18019552  0.99014775    -0.33200
H1605       H  0.60926640  0.21065605  0.00583715     0.28200
H1606       H  0.65627780  0.05660297  0.82476416     0.28200
H1607       H  0.71157161  0.14304328  0.89716805     0.18800
H1608       H  0.55222322  0.12836468  0.92210261     0.18800
loop_ 
_geom_bond_atom_site_label_1 
_geom_bond_atom_site_label_2 
_geom_bond_distance 
_geom_bond_site_symmetry_2 
_ccdc_geom_bond_type 
O1          Zr37   2.470       .  S
O1           C12   1.299       .  A
O2          Zr36   2.470       .  S
O2           C13   1.302       .  A
O3           Zr9   2.465       .  S
O3           C14   1.295       .  A
O4           Zr9   2.437       .  S
O4           C15   1.290       .  A
O5          Zr39   2.460       .  S
O5           C15   1.296       .  A
O6          Zr38   2.459       .  S
O6           C14   1.294   1_565  A
O7           Zr9   2.384       .  S
O7           C13   1.280       .  A
O8           Zr9   2.377       .  S
O8           C12   1.280       .  A
Zr9          O10   2.343       .  S
Zr9          O11   2.339       .  S
Zr9          O19   2.331       .  S
Zr9          O17   2.319       .  S
O10         Zr36   2.350       .  S
O10         Zr39   2.338       .  S
O11         Zr37   2.354       .  S
O11         Zr38   2.321   1_545  S
C12        C1600   1.466       .  S
C13        C1501   1.485       .  S
C14        C1477   1.489       .  S
C15        C1540   1.489       .  S
H16          O17   0.961       .  S
O17         Zr36   2.329       .  S
O17         Zr38   2.332   1_545  S
H18          O19   0.963       .  S
O19         Zr37   2.322       .  S
O19         Zr39   2.326       .  S
O20         Zr36   2.458   1_565  S
O20          C43   1.297       .  A
O21         Zr37   2.478   1_565  S
O21          C44   1.301       .  A
O22         Zr38   2.374       .  S
O22          C45   1.280       .  A
O23         Zr39   2.393       .  S
O23          C46   1.282       .  A
O24         Zr39   2.393       .  S
O24          C47   1.285       .  A
O25         Zr38   2.424       .  S
O25          C48   1.287       .  A
O26         Zr40   2.457       .  S
O26          C49   1.297       .  A
O27         Zr40   2.465       .  S
O27          C50   1.299   1_565  A
O28         Zr38   2.424       .  S
O28          C49   1.288       .  A
O29         Zr39   2.459       .  S
O29          C50   1.294       .  A
O30         Zr36   2.474   1_565  S
O30          C45   1.300       .  A
O31         Zr37   2.473   1_565  S
O31          C48   1.299       .  A
O32         Zr37   2.460       .  S
O32          C47   1.296       .  A
O33         Zr36   2.500       .  S
O33          C46   1.305       .  A
O34         Zr40   2.495       .  S
O34          C43   1.304       .  A
O35         Zr40   2.473       .  S
O35          C44   1.299       .  A
Zr36         O42   2.356   1_545  S
Zr36         O54   2.341       .  S
Zr37         O41   2.364       .  S
Zr37         O52   2.339   1_545  S
Zr38         O42   2.346       .  S
Zr38         O52   2.345       .  S
Zr39         O41   2.344       .  S
Zr39         O54   2.348       .  S
Zr40         O41   2.355   1_565  S
Zr40         O42   2.343       .  S
Zr40         O54   2.354   1_565  S
Zr40         O52   2.371       .  S
C43        C1525   1.508       .  S
C44        C1573   1.519       .  S
C45        C1516   1.454       .  S
C46        C1489   1.478       .  S
C47        C1564   1.461       .  S
C48        C1585   1.480       .  S
C49        C1549   1.491       .  S
C50        C1465   1.513       .  S
H51          O52   0.965       .  S
H53          O54   0.965       .  S
C55        C1429   1.581       .  S
C55        C1441   1.581       .  S
C55        C1453   1.585       .  S
C55        C1504   1.585       .  S
O56         Zr92   2.439       .  S
O56          C67   1.291       .  A
O57         Zr91   2.407       .  S
O57          C68   1.287       .  A
O58         Zr64   2.409       .  S
O58          C69   1.284       .  A
O59         Zr64   2.465   1_565  S
O59          C70   1.300       .  A
O60         Zr94   2.431       .  S
O60          C70   1.288       .  A
O61         Zr93   2.437       .  S
O61          C69   1.293       .  A
O62         Zr64   2.485   1_565  S
O62          C68   1.300       .  A
O63         Zr64   2.489       .  S
O63          C67   1.303       .  A
Zr64         O65   2.350   1_545  S
Zr64         O66   2.355       .  S
Zr64         O74   2.327       .  S
Zr64         O72   2.342       .  S
O65         Zr91   2.344       .  S
O65         Zr94   2.337       .  S
O66         Zr92   2.344       .  S
O66         Zr93   2.354       .  S
C67        C1444   1.493       .  S
C68        C1321   1.480       .  S
C69        C1348   1.485       .  S
C70        C1333   1.507       .  S
H71          O72   0.965       .  S
O72         Zr91   2.329   1_545  S
O72         Zr93   2.348       .  S
H73          O74   0.965       .  S
O74         Zr92   2.350       .  S
O74         Zr94   2.341   1_545  S
O75         Zr91   2.384       .  S
O75          C98   1.281       .  A
O76         Zr92   2.448       .  S
O76          C99   1.294       .  A
O77         Zr93   2.432       .  S
O77         C100   1.292       .  A
O78         Zr94   2.441       .  S
O78         C101   1.291       .  A
O79         Zr94   2.444       .  S
O79         C102   1.294   1_565  A
O80         Zr93   2.420       .  S
O80         C103   1.288       .  A
O81         Zr95   2.453       .  S
O81         C104   1.296       .  A
O82         Zr95   2.423   1_565  S
O82         C105   1.289       .  A
O83         Zr93   2.471       .  S
O83         C104   1.297       .  A
O84         Zr94   2.398       .  S
O84         C105   1.286       .  A
O85         Zr91   2.461       .  S
O85         C100   1.295   1_565  A
O86         Zr92   2.433       .  S
O86         C103   1.291       .  A
O87         Zr92   2.448       .  S
O87         C102   1.293       .  A
O88         Zr91   2.474       .  S
O88         C101   1.299       .  A
O89         Zr95   2.484   1_565  S
O89          C98   1.303       .  A
O90         Zr95   2.465       .  S
O90          C99   1.299       .  A
Zr91         O97   2.352   1_565  S
Zr91        O109   2.328       .  S
Zr92         O96   2.329       .  S
Zr92        O107   2.349       .  S
Zr93         O97   2.336       .  S
Zr93        O107   2.344       .  S
Zr94         O96   2.340   1_565  S
Zr94        O109   2.341       .  S
Zr95         O96   2.349       .  S
Zr95         O97   2.344       .  S
Zr95        O109   2.323   1_545  S
Zr95        O107   2.322       .  S
C98        C1405   1.467       .  S
C99        C1384   1.501       .  S
C100       C1297   1.502       .  S
C101       C1369   1.501       .  S
C102       C1309   1.493       .  S
C103       C1360   1.452       .  S
C104       C1417   1.505       .  S
C105       C1393   1.473       .  S
H106        O107   0.965       .  S
H108        O109   0.964       .  S
C110       C1273   1.574       .  S
C110       C1288   1.584       .  S
C110       C1408   1.569       .  S
C110       C1576   1.612   1_554  S
C111       C1249   1.567   1_554  S
C111       C1261   1.591       .  S
C111       C1396   1.573       .  S
C111       C1588   1.588   1_554  S
C112       C1225   1.613       .  S
C112       C1237   1.601       .  S
C112       C1336   1.603       .  S
C112       C1513   1.565       .  S
C113       C1201   1.585       .  S
C113       C1213   1.561       .  S
C113       C1420   1.603   1_556  S
C113       C1561   1.571       .  S
C114       C1177   1.574       .  S
C114       C1189   1.594       .  S
C114       C1381   1.613   1_556  S
C114       C1597   1.572       .  S
C115       C1156   1.577       .  S
C115       C1168   1.579       .  S
C115       C1345   1.570       .  S
C115       C1492   1.575       .  S
C116       C1129   1.601       .  S
C116       C1141   1.578       .  S
C116       C1324   1.589       .  S
C116       C1528   1.593       .  S
O117       Zr153   2.476       .  S
O117        C128   1.300       .  A
O118       Zr152   2.484       .  S
O118        C129   1.300   1_455  A
O119       Zr125   2.395       .  S
O119        C130   1.284       .  A
O120       Zr125   2.418       .  S
O120        C131   1.287       .  A
O121       Zr155   2.475       .  S
O121        C131   1.300       .  A
O122       Zr154   2.439       .  S
O122        C130   1.292       .  A
O123       Zr125   2.453       .  S
O123        C129   1.294       .  A
O124       Zr125   2.457       .  S
O124        C128   1.294       .  A
Zr125       O126   2.346       .  S
Zr125       O127   2.347       .  S
Zr125       O135   2.327       .  S
Zr125       O133   2.344       .  S
O126       Zr152   2.339   1_655  S
O126       Zr155   2.340       .  S
O127       Zr153   2.343       .  S
O127       Zr154   2.353       .  S
C128       C1228   1.517       .  S
C129       C1021   1.495       .  S
C130       C1057   1.447       .  S
C131       C1105   1.482       .  S
H132        O133   0.964       .  S
O133       Zr152   2.343   1_655  S
O133       Zr154   2.329       .  S
H134        O135   0.965       .  S
O135       Zr153   2.353       .  S
O135       Zr155   2.340       .  S
O136       Zr152   2.465       .  S
O136        C159   1.298       .  A
O137       Zr153   2.473       .  S
O137        C160   1.299       .  A
O138       Zr154   2.489   1_455  S
O138        C161   1.301       .  A
O139       Zr155   2.466   1_455  S
O139        C162   1.297       .  A
O140       Zr155   2.406       .  S
O140        C163   1.288       .  A
O141       Zr154   2.491       .  S
O141        C164   1.302       .  A
O142       Zr156   2.441       .  S
O142        C165   1.293       .  A
O143       Zr156   2.448       .  S
O143        C166   1.293       .  A
O144       Zr154   2.426   1_455  S
O144        C165   1.288       .  A
O145       Zr155   2.477   1_455  S
O145        C166   1.300       .  A
O146       Zr152   2.387       .  S
O146        C161   1.281       .  A
O147       Zr153   2.465       .  S
O147        C164   1.297       .  A
O148       Zr153   2.444       .  S
O148        C163   1.293       .  A
O149       Zr152   2.412       .  S
O149        C162   1.286       .  A
O150       Zr156   2.478       .  S
O150        C159   1.299       .  A
O151       Zr156   2.472       .  S
O151        C160   1.299   1_455  A
Zr152       O158   2.347       .  S
Zr152       O170   2.342       .  S
Zr153       O157   2.364       .  S
Zr153       O168   2.347       .  S
Zr154       O158   2.350   1_655  S
Zr154       O168   2.331       .  S
Zr155       O157   2.367       .  S
Zr155       O170   2.323   1_655  S
Zr156       O157   2.351   1_455  S
Zr156       O158   2.347       .  S
Zr156       O170   2.354       .  S
Zr156       O168   2.355   1_455  S
C159       C1132   1.512       .  S
C160       C1009   1.504       .  S
C161       C1045   1.472       .  S
C162       C1117   1.470       .  S
C163       C1093   1.463       .  S
C164       C1069   1.514       .  S
C165       C1033   1.485       .  S
C166       C1081   1.492       .  S
H167        O168   0.964       .  S
H169        O170   0.965       .  S
O171       Zr207   2.433       .  S
O171        C182   1.291       .  A
O172       Zr206   2.461       .  S
O172        C183   1.296   1_455  A
O173       Zr179   2.456       .  S
O173        C184   1.295       .  A
O174       Zr179   2.446       .  S
O174        C185   1.294       .  A
O175       Zr209   2.454       .  S
O175        C185   1.296       .  A
O176       Zr208   2.454       .  S
O176        C184   1.296       .  A
O177       Zr179   2.427       .  S
O177        C183   1.289       .  A
O178       Zr179   2.464       .  S
O178        C182   1.296       .  A
Zr179       O180   2.354       .  S
Zr179       O181   2.331       .  S
Zr179       O189   2.350       .  S
Zr179       O187   2.346       .  S
O180       Zr206   2.336   1_655  S
O180       Zr209   2.344       .  S
O181       Zr207   2.331       .  S
O181       Zr208   2.326       .  S
C182       C1432   1.491       .  S
C183        C901   1.473       .  S
C184        C976   1.500       .  S
C185        C925   1.487       .  S
H186        O187   0.965       .  S
O187       Zr206   2.360   1_655  S
O187       Zr208   2.365       .  S
H188        O189   0.965       .  S
O189       Zr207   2.333       .  S
O189       Zr209   2.362       .  S
O190       Zr206   2.441       .  S
O190        C213   1.292       .  A
O191       Zr207   2.439       .  S
O191        C214   1.291       .  A
O192       Zr208   2.423   1_455  S
O192        C215   1.291       .  A
O193       Zr209   2.461   1_455  S
O193        C216   1.296       .  A
O194       Zr209   2.473       .  S
O194        C217   1.298       .  A
O195       Zr208   2.476       .  S
O195        C218   1.299       .  A
O196       Zr210   2.440       .  S
O196        C219   1.292       .  A
O197       Zr210   2.394       .  S
O197        C220   1.284       .  A
O198       Zr208   2.456   1_455  S
O198        C219   1.296       .  A
O199       Zr209   2.458   1_455  S
O199        C220   1.298       .  A
O200       Zr206   2.441       .  S
O200        C215   1.292       .  A
O201       Zr207   2.400       .  S
O201        C218   1.284       .  A
O202       Zr207   2.409       .  S
O202        C217   1.286       .  A
O203       Zr206   2.475       .  S
O203        C216   1.298       .  A
O204       Zr210   2.468       .  S
O204        C213   1.298       .  A
O205       Zr210   2.468       .  S
O205        C214   1.297   1_455  A
Zr206       O212   2.348       .  S
Zr206       O224   2.344       .  S
Zr207       O211   2.324       .  S
Zr207       O222   2.345       .  S
Zr208       O212   2.338   1_655  S
Zr208       O222   2.344       .  S
Zr209       O211   2.328       .  S
Zr209       O224   2.362   1_655  S
Zr210       O211   2.342   1_455  S
Zr210       O212   2.321       .  S
Zr210       O224   2.356       .  S
Zr210       O222   2.338   1_455  S
C213       C1153   1.493       .  S
C214        C889   1.486       .  S
C215        C961   1.463       .  S
C216        C937   1.496       .  S
C217        C916   1.474       .  S
C218        C985   1.470       .  S
C219       C1000   1.481       .  S
C220        C952   1.474       .  S
H221        O222   0.962       .  S
H223        O224   0.966       .  S
C225        C865   1.571       .  S
C225        C877   1.581       .  S
C225        C928   1.593       .  S
C225       C1060   1.577       .  S
C226        C841   1.580       .  S
C226        C856   1.589       .  S
C226        C940   1.593       .  S
C226       C1048   1.572       .  S
C227        C832   1.576       .  S
C227        C988   1.586       .  S
C227       C1096   1.559   1_545  S
C227       C1312   1.572       .  S
C228        C817   1.562   1_545  S
C228        C973   1.604       .  S
C228       C1108   1.580   1_545  S
C228       C1480   1.593       .  S
C229        C793   1.577       .  S
C229        C805   1.590       .  S
C229        C913   1.578       .  S
C229       C1072   1.609       .  S
C230        C769   1.573       .  S
C230        C781   1.582       .  S
C230        C949   1.572       .  S
C230       C1036   1.571       .  S
C231        C757   1.579       .  S
C231        C997   1.577       .  S
C231       C1084   1.589   1_545  S
C231       C1300   1.577       .  S
C232        C745   1.571       .  S
C232        C964   1.573       .  S
C232       C1120   1.575   1_545  S
C232       C1468   1.589       .  S
O233       Zr269   2.439       .  S
O233        C244   1.291       .  A
O234       Zr268   2.462       .  S
O234        C245   1.297       .  A
O235       Zr241   2.400       .  S
O235        C246   1.284       .  A
O236       Zr241   2.355       .  S
O236        C247   1.276       .  A
O237       Zr271   2.496   1_554  S
O237        C247   1.304       .  A
O238       Zr270   2.491   1_554  S
O238        C246   1.302       .  A
O239       Zr241   2.442       .  S
O239        C245   1.290       .  A
O240       Zr241   2.444       .  S
O240        C244   1.294   1_554  A
Zr241       O242   2.334       .  S
Zr241       O243   2.312   1_554  S
Zr241       O251   2.345   1_554  S
Zr241       O249   2.332       .  S
O242       Zr268   2.321       .  S
O242       Zr271   2.332   1_554  S
O243       Zr269   2.346       .  S
O243       Zr270   2.339       .  S
C244       C1252   1.495       .  S
C245        C796   1.502       .  S
C246        C661   1.476       .  S
C247        C733   1.455       .  S
H248        O249   0.965       .  S
O249       Zr268   2.339       .  S
O249       Zr270   2.352   1_554  S
H250        O251   0.965       .  S
O251       Zr269   2.329       .  S
O251       Zr271   2.354       .  S
O252       Zr268   2.445       .  S
O252        C275   1.292   1_554  A
O253       Zr269   2.447       .  S
O253        C276   1.293       .  A
O254       Zr270   2.465   1_554  S
O254        C277   1.298       .  A
O255       Zr271   2.467   1_554  S
O255        C278   1.300       .  A
O256       Zr271   2.469       .  S
O256        C279   1.300       .  A
O257       Zr270   2.436       .  S
O257        C280   1.293       .  A
O258       Zr272   2.444       .  S
O258        C281   1.291       .  A
O259       Zr272   2.416       .  S
O259        C282   1.286       .  A
O260       Zr270   2.493       .  S
O260        C281   1.303       .  A
O261       Zr271   2.477       .  S
O261        C282   1.304       .  A
O262       Zr268   2.372       .  S
O262        C277   1.280       .  A
O263       Zr269   2.421       .  S
O263        C280   1.290       .  A
O264       Zr269   2.478       .  S
O264        C279   1.300       .  A
O265       Zr268   2.395       .  S
O265        C278   1.283       .  A
O266       Zr272   2.438       .  S
O266        C275   1.291       .  A
O267       Zr272   2.433       .  S
O267        C276   1.290       .  A
Zr268       O274   2.347   1_554  S
Zr268       O286   2.332   1_554  S
Zr269       O273   2.334       .  S
Zr269       O284   2.349       .  S
Zr270       O274   2.338       .  S
Zr270       O284   2.363       .  S
Zr271       O273   2.353       .  S
Zr271       O286   2.354       .  S
Zr272       O273   2.354       .  S
Zr272       O274   2.335       .  S
Zr272       O286   2.350       .  S
Zr272       O284   2.330       .  S
C275       C1180   1.487       .  S
C276        C868   1.494       .  S
C277        C649   1.481       .  S
C278        C697   1.470       .  S
C279        C724   1.515       .  S
C280        C673   1.457       .  S
C281        C685   1.496       .  S
C282        C709   1.494       .  S
H283        O284   0.965       .  S
H285        O286   0.966       .  S
O287       Zr323   2.441       .  S
O287        C298   1.292   1_556  A
O288       Zr322   2.446       .  S
O288        C299   1.292       .  A
O289       Zr295   2.443       .  S
O289        C300   1.291       .  A
O290       Zr295   2.450       .  S
O290        C301   1.293       .  A
O291       Zr325   2.458       .  S
O291        C301   1.297       .  A
O292       Zr324   2.452       .  S
O292        C300   1.299       .  A
O293       Zr295   2.437       .  S
O293        C299   1.291       .  A
O294       Zr295   2.447       .  S
O294        C298   1.292       .  A
Zr295       O296   2.341       .  S
Zr295       O297   2.350       .  S
Zr295       O305   2.340       .  S
Zr295       O303   2.357       .  S
O296       Zr322   2.350       .  S
O296       Zr325   2.345       .  S
O297       Zr323   2.343   1_554  S
O297       Zr324   2.356       .  S
C298       C1276   1.471       .  S
C299        C772   1.469       .  S
C300        C577   1.503       .  S
C301        C628   1.503       .  S
H302        O303   0.966       .  S
O303       Zr322   2.340       .  S
O303       Zr324   2.336       .  S
H304        O305   0.965       .  S
O305       Zr323   2.339   1_554  S
O305       Zr325   2.324       .  S
O306       Zr322   2.450       .  S
O306        C329   1.293       .  A
O307       Zr323   2.452       .  S
O307        C330   1.294       .  A
O308       Zr324   2.491       .  S
O308        C331   1.305       .  A
O309       Zr325   2.425       .  S
O309        C332   1.293       .  A
O310       Zr325   2.442   1_556  S
O310        C333   1.294       .  A
O311       Zr324   2.479   1_556  S
O311        C334   1.301       .  A
O312       Zr326   2.392       .  S
O312        C335   1.283       .  A
O313       Zr326   2.415       .  S
O313        C336   1.288       .  A
O314       Zr324   2.461   1_556  S
O314        C335   1.299       .  A
O315       Zr325   2.458   1_556  S
O315        C336   1.295       .  A
O316       Zr322   2.424       .  S
O316        C331   1.286       .  A
O317       Zr323   2.410       .  S
O317        C334   1.288       .  A
O318       Zr323   2.419       .  S
O318        C333   1.288       .  A
O319       Zr322   2.380       .  S
O319        C332   1.280       .  A
O320       Zr326   2.455       .  S
O320        C329   1.296   1_556  A
O321       Zr326   2.453       .  S
O321        C330   1.296       .  A
Zr322       O328   2.334   1_554  S
Zr322       O340   2.344       .  S
Zr323       O327   2.337       .  S
Zr323       O338   2.336       .  S
Zr324       O328   2.349   1_554  S
Zr324       O338   2.331   1_554  S
Zr325       O327   2.341   1_554  S
Zr325       O340   2.320       .  S
Zr326       O327   2.336       .  S
Zr326       O328   2.352       .  S
Zr326       O340   2.326   1_556  S
Zr326       O338   2.336       .  S
C329       C1204   1.498   1_554  S
C330        C844   1.499       .  S
C331        C568   1.514       .  S
C332        C640   1.441       .  S
C333        C616   1.470       .  S
C334        C589   1.486       .  S
C335        C556   1.465       .  S
C336        C601   1.499       .  S
H337        O338   0.965       .  S
H339        O340   0.964       .  S
C341        C541   1.602       .  S
C341        C592   1.596       .  S
C341        C721   1.593   1_455  S
C341       C1024   1.596   1_455  S
C342        C529   1.586       .  S
C342        C553   1.557   1_655  S
C342        C712   1.585       .  S
C342        C904   1.596       .  S
C343        C520   1.549       .  S
C343        C613   1.565       .  S
C343        C676   1.579       .  S
C343       C1552   1.590       .  S
C344        C505   1.593       .  S
C344        C625   1.611       .  S
C344        C664   1.600       .  S
C344       C1372   1.563       .  S
C345        C496   1.588       .  S
C345        C565   1.595   1_655  S
C345        C700   1.562       .  S
C345        C892   1.590       .  S
C346        C481   1.583       .  S
C346        C580   1.590   1_655  S
C346        C736   1.558       .  S
C346       C1012   1.592       .  S
C347        C469   1.593       .  S
C347        C604   1.597       .  S
C347        C688   1.604       .  S
C347       C1537   1.563       .  S
C348        C457   1.567       .  S
C348        C637   1.555       .  S
C348        C652   1.575       .  S
C348       C1357   1.576       .  S
O349       Zr385   2.495       .  S
O349        C360   1.302       .  A
O350       Zr384   2.448       .  S
O350        C361   1.294       .  A
O351       Zr357   2.481       .  S
O351        C362   1.300       .  A
O352       Zr357   2.536       .  S
O352        C363   1.308       .  A
O353       Zr387   2.359       .  S
O353        C363   1.267       .  A
O354       Zr386   2.405       .  S
O354        C362   1.288       .  A
O355       Zr357   2.360       .  S
O355        C361   1.279       .  A
O356       Zr357   2.373       .  S
O356        C360   1.280       .  A
Zr357       O358   2.325       .  S
Zr357       O359   2.348       .  S
Zr357       O367   2.324       .  S
Zr357       O365   2.353       .  S
O358       Zr384   2.326       .  S
O358       Zr387   2.314       .  S
O359       Zr385   2.336       .  S
O359       Zr386   2.330       .  S
C360       C1456   1.467       .  S
C361        C460   1.443       .  S
C362       C1165   1.477       .  S
C363        C808   1.496       .  S
H364        O365   0.965       .  S
O365       Zr384   2.348       .  S
O365       Zr386   2.349       .  S
H366        O367   0.964       .  S
O367       Zr385   2.343       .  S
O367       Zr387   2.346       .  S
O368       Zr384   2.519       .  S
O368        C391   1.300       .  A
O369       Zr385   2.509       .  S
O369        C392   1.306       .  A
O370       Zr386   2.500       .  S
O370        C393   1.302       .  A
O371       Zr387   2.493       .  S
O371        C394   1.301       .  A
O372       Zr387   2.496       .  S
O372        C395   1.301       .  A
O373       Zr386   2.522       .  S
O373        C396   1.308       .  A
O374       Zr388   2.500       .  S
O374        C397   1.304       .  A
O375       Zr388   2.487       .  S
O375        C398   1.301       .  A
O376       Zr386   2.365       .  S
O376        C397   1.281       .  A
O377       Zr387   2.363       .  S
O377        C398   1.279       .  A
O378       Zr384   2.359       .  S
O378        C393   1.281       .  A
O379       Zr385   2.373       .  S
O379        C396   1.280       .  A
O380       Zr385   2.362       .  S
O380        C395   1.279       .  A
O381       Zr384   2.375       .  S
O381        C394   1.280       .  A
O382       Zr388   2.371       .  S
O382        C391   1.268       .  A
O383       Zr388   2.323       .  S
O383        C392   1.270       .  A
Zr384       O390   2.316       .  S
Zr384       O402   2.323       .  S
Zr385       O389   2.330       .  S
Zr385       O400   2.326       .  S
Zr386       O390   2.333       .  S
Zr386       O400   2.338       .  S
Zr387       O389   2.334       .  S
Zr387       O402   2.335       .  S
Zr388       O389   2.336       .  S
Zr388       O390   2.308       .  S
Zr388       O402   2.334       .  S
Zr388       O400   2.333       .  S
C391       C1144   1.491       .  S
C392        C517   1.450       .  S
C393        C784   1.486       .  S
C394        C508   1.472       .  S
C395        C880   1.456       .  S
C396        C472   1.480       .  S
C397        C853   1.484       .  S
C398       C1240   1.456       .  S
H399        O400   0.965       .  S
H401        O402   0.965       .  S
O403       Zr439   2.569       .  S
O403        C414   1.316       .  A
O404       Zr438   2.520   1_455  S
O404        C415   1.303       .  A
O405       Zr411   2.544       .  S
O405        C416   1.310       .  A
O406       Zr411   2.487   1_545  S
O406        C417   1.298       .  A
O407       Zr441   2.328       .  S
O407        C417   1.272   1_554  A
O408       Zr440   2.363       .  S
O408        C416   1.280   1_655  A
O409       Zr411   2.326   1_545  S
O409        C415   1.272       .  A
O410       Zr411   2.319       .  S
O410        C414   1.266   1_556  A
Zr411       O412   2.339   1_565  S
Zr411       O413   2.313   1_556  S
Zr411       O421   2.337   1_566  S
Zr411       O419   2.310   1_455  S
O412       Zr438   2.326   1_455  S
O412       Zr441   2.350   1_556  S
O413       Zr439   2.320       .  S
O413       Zr440   2.329   1_454  S
C414       C1285   1.494       .  S
C415        C748   1.479       .  S
C416        C544   1.506       .  S
C417       C1216   1.441       .  S
H418        O419   0.965       .  S
O419       Zr438   2.349   1_565  S
O419       Zr440   2.360       .  S
H420        O421   0.962       .  S
O421       Zr439   2.294   1_545  S
O421       Zr441   2.322       .  S
O422       Zr438   2.471       .  S
O422        C445   1.298       .  A
O423       Zr439   2.481   1_655  S
O423        C446   1.300   1_565  A
O424       Zr440   2.501       .  S
O424        C447   1.299       .  A
O425       Zr441   2.468   1_556  S
O425        C448   1.297       .  A
O426       Zr441   2.505       .  S
O426        C449   1.302       .  A
O427       Zr440   2.529   1_554  S
O427        C450   1.310       .  A
O428       Zr442   2.479   1_565  S
O428        C451   1.298       .  A
O429       Zr442   2.519       .  S
O429        C452   1.305       .  A
O430       Zr440   2.400       .  S
O430        C451   1.289   1_556  A
O431       Zr441   2.350       .  S
O431        C452   1.273   1_455  A
O432       Zr438   2.384       .  S
O432        C447   1.268   1_545  A
O433       Zr439   2.325       .  S
O433        C450   1.266   1_455  A
O434       Zr439   2.349   1_545  S
O434        C449   1.277       .  A
O435       Zr438   2.399       .  S
O435        C448   1.285   1_655  A
O436       Zr442   2.397   1_556  S
O436        C445   1.285       .  A
O437       Zr442   2.358       .  S
O437        C446   1.280       .  A
Zr438       O444   2.340       .  S
Zr438       O456   2.341       .  S
Zr439       O443   2.340   1_465  S
Zr439       O454   2.359   1_455  S
Zr440       O444   2.331   1_565  S
Zr440       O454   2.340   1_556  S
Zr441       O443   2.305   1_455  S
Zr441       O456   2.332   1_454  S
Zr442       O443   2.339       .  S
Zr442       O444   2.324   1_554  S
Zr442       O456   2.317   1_554  S
Zr442       O454   2.361   1_545  S
C445       C1192   1.469       .  S
C446        C829   1.474       .  S
C447        C820   1.487       .  S
C448        C532   1.458       .  S
C449        C760   1.476       .  S
C450        C484   1.496       .  S
C451       C1264   1.493       .  S
C452        C493   1.484       .  S
H453        O454   0.966       .  S
H455        O456   0.963       .  S
C457        C458   1.434       .  A
C457        C462   1.432       .  A
C458        C459   1.382       .  A
C458        H467   1.084       .  S
C459        C460   1.390       .  A
C459        S463   1.803       .  S
C460        C461   1.395       .  A
C461        C462   1.391       .  A
C461        H468   1.082       .  S
C462        S464   1.809       .  S
S463        H466   1.405       .  S
S464        H465   1.406       .  S
C469        C470   1.406       .  A
C469        C474   1.463       .  A
C470        C471   1.392       .  A
C470        H479   1.083       .  S
C471        C472   1.406       .  A
C471        S475   1.772       .  S
C472        C473   1.382       .  A
C473        C474   1.408       .  A
C473        H480   1.084       .  S
C474        S476   1.806       .  S
S475        H478   1.408       .  S
S476        H477   1.408       .  S
C481        C482   1.407   1_655  A
C481        C486   1.430       .  A
C482        C483   1.395       .  A
C482        H491   1.078       .  S
C483        C484   1.436   1_455  A
C483        S487   1.822       .  S
C484        C485   1.394       .  A
C485        C486   1.401       .  A
C485        H492   1.081       .  S
C486        S488   1.782       .  S
S487        H490   1.406       .  S
S488        H489   1.406   1_655  S
C493        C494   1.410       .  A
C493        C498   1.392       .  A
C494        C495   1.401       .  A
C494        H503   1.083   1_655  S
C495        C496   1.428       .  A
C495        S499   1.806   1_655  S
C496        C497   1.431       .  A
C497        C498   1.398       .  A
C497        H504   1.069       .  S
C498        S500   1.795       .  S
S499        H502   1.409       .  S
S500        H501   1.404       .  S
C505        C506   1.408       .  A
C505        C510   1.458       .  A
C506        C507   1.397       .  A
C506        H515   1.084       .  S
C507        C508   1.405       .  A
C507        S511   1.784       .  S
C508        C509   1.386       .  A
C509        C510   1.403       .  A
C509        H516   1.086       .  S
C510        S512   1.814       .  S
S511        H514   1.407       .  S
S512        H513   1.387       .  S
C517        C518   1.391       .  A
C517        C522   1.402       .  A
C518        C519   1.386       .  A
C518        H527   1.083       .  S
C519        C520   1.438       .  A
C519        S523   1.823       .  S
C520        C521   1.428       .  A
C521        C522   1.400       .  A
C521        H528   1.082       .  S
C522        S524   1.804       .  S
S523        H526   1.389       .  S
S524        H525   1.405       .  S
C529        C530   1.417       .  A
C529        C534   1.445   1_655  A
C530        C531   1.399       .  A
C530        H539   1.074       .  S
C531        C532   1.408   1_655  A
C531        S535   1.805       .  S
C532        C533   1.384       .  A
C533        C534   1.394       .  A
C533        H540   1.084       .  S
C534        S536   1.809       .  S
S535        H538   1.400       .  S
S536        H537   1.407       .  S
C541        C542   1.429       .  A
C541        C546   1.439   1_455  A
C542        C543   1.414       .  A
C542        H551   1.078       .  S
C543        C544   1.405       .  A
C543        S547   1.795       .  S
C544        C545   1.405       .  A
C545        C546   1.399   1_455  A
C545        H552   1.082   1_455  S
C546        S548   1.807       .  S
S547        H550   1.405       .  S
S548        H549   1.402       .  S
C553        C554   1.427       .  A
C553        C558   1.425       .  A
C554        C555   1.376       .  A
C554        H563   1.083       .  S
C555        C556   1.397       .  A
C555        S559   1.805       .  S
C556        C557   1.408       .  A
C557        C558   1.411       .  A
C557        H564   1.083       .  S
C558        S560   1.799       .  S
S559        H562   1.407       .  S
S560        H561   1.407       .  S
C565        C566   1.415       .  A
C565        C570   1.449       .  A
C566        C567   1.414       .  A
C566        H575   1.082       .  S
C567        C568   1.426       .  A
C567        S571   1.798       .  S
C568        C569   1.394       .  A
C569        C570   1.401       .  A
C569        H576   1.082       .  S
C570        S572   1.817   1_455  S
S571        H574   1.409       .  S
S572        H573   1.408       .  S
C577        C578   1.392       .  A
C577        C582   1.417       .  A
C578        C579   1.392       .  A
C578        H587   1.083       .  S
C579        C580   1.448       .  A
C579        S583   1.809   1_455  S
C580        C581   1.422       .  A
C581        C582   1.413       .  A
C581        H588   1.082       .  S
C582        S584   1.800       .  S
S583        H586   1.409       .  S
S584        H585   1.406       .  S
C589        C590   1.403       .  A
C589        C594   1.408       .  A
C590        C591   1.401       .  A
C590        H599   1.084       .  S
C591        C592   1.426       .  A
C591        S595   1.795       .  S
C592        C593   1.428       .  A
C593        C594   1.404       .  A
C593        H600   1.083       .  S
C594        S596   1.800       .  S
S595        H598   1.409       .  S
S596        H597   1.407       .  S
C601        C602   1.411       .  A
C601        C606   1.407       .  A
C602        C603   1.412       .  A
C602        H611   1.081       .  S
C603        C604   1.431       .  A
C603        S607   1.804       .  S
C604        C605   1.429       .  A
C605        C606   1.392       .  A
C605        H612   1.070       .  S
C606        S608   1.816       .  S
S607        H610   1.406       .  S
S608        H609   1.407       .  S
C613        C614   1.419       .  A
C613        C618   1.439       .  A
C614        C615   1.397       .  A
C614        H623   1.077       .  S
C615        C616   1.407       .  A
C615        S619   1.802       .  S
C616        C617   1.389       .  A
C617        C618   1.395       .  A
C617        H624   1.082       .  S
C618        S620   1.808       .  S
S619        H622   1.403       .  S
S620        H621   1.407       .  S
C625        C626   1.429       .  A
C625        C630   1.437       .  A
C626        C627   1.392       .  A
C626        H635   1.066       .  S
C627        C628   1.404       .  A
C627        S631   1.809       .  S
C628        C629   1.408       .  A
C629        C630   1.422       .  A
C629        H636   1.082       .  S
C630        S632   1.800       .  S
S631        H634   1.409       .  S
S632        H633   1.406       .  S
C637        C638   1.413       .  A
C637        C642   1.441       .  A
C638        C639   1.396       .  A
C638        H647   1.079       .  S
C639        C640   1.407       .  A
C639        S643   1.802       .  S
C640        C641   1.383       .  A
C641        C642   1.373       .  A
C641        H648   1.086       .  S
C642        S644   1.813       .  S
S643        H646   1.406       .  S
S644        H645   1.409       .  S
C649        C650   1.415       .  A
C649        C654   1.399       .  A
C650        C651   1.405       .  A
C650        H659   1.083       .  S
C651        C652   1.425       .  A
C651        S655   1.808       .  S
C652        C653   1.429       .  A
C653        C654   1.382       .  A
C653        H660   1.076       .  S
C654        S656   1.812       .  S
S655        H658   1.398       .  S
S656        H657   1.408       .  S
C661        C662   1.399       .  A
C661        C666   1.405       .  A
C662        C663   1.411       .  A
C662        H671   1.084       .  S
C663        C664   1.443       .  A
C663        S667   1.797       .  S
C664        C665   1.416       .  A
C665        C666   1.398       .  A
C665        H672   1.073       .  S
C666        S668   1.805       .  S
S667        H670   1.406       .  S
S668        H669   1.406       .  S
C673        C674   1.387       .  A
C673        C678   1.398       .  A
C674        C675   1.394       .  A
C674        H683   1.085       .  S
C675        C676   1.448       .  A
C675        S679   1.812       .  S
C676        C677   1.426       .  A
C677        C678   1.394       .  A
C677        H684   1.083       .  S
C678        S680   1.804       .  S
S679        H682   1.408       .  S
S680        H681   1.407       .  S
C685        C686   1.390       .  A
C685        C690   1.416       .  A
C686        C687   1.405       .  A
C686        H695   1.082       .  S
C687        C688   1.442       .  A
C687        S691   1.805       .  S
C688        C689   1.422       .  A
C689        C690   1.420       .  A
C689        H696   1.079       .  S
C690        S692   1.803       .  S
S691        H694   1.406       .  S
S692        H693   1.406       .  S
C697        C698   1.408       .  A
C697        C702   1.396       .  A
C698        C699   1.411       .  A
C698        H707   1.082       .  S
C699        C700   1.431       .  A
C699        S703   1.813       .  S
C700        C701   1.427       .  A
C701        C702   1.384       .  A
C701        H708   1.073       .  S
C702        S704   1.812       .  S
S703        H706   1.386       .  S
S704        H705   1.407       .  S
C709        C710   1.388       .  A
C709        C714   1.422       .  A
C710        C711   1.387       .  A
C710        H719   1.085       .  S
C711        C712   1.453       .  A
C711        S715   1.821   1_655  S
C712        C713   1.414       .  A
C713        C714   1.411       .  A
C713        H720   1.084       .  S
C714        S716   1.801       .  S
S715        H718   1.389       .  S
S716        H717   1.407       .  S
C721        C722   1.415       .  A
C721        C726   1.451       .  A
C722        C723   1.405       .  A
C722        H731   1.079       .  S
C723        C724   1.413       .  A
C723        S727   1.783       .  S
C724        C725   1.401       .  A
C725        C726   1.412       .  A
C725        H732   1.084       .  S
C726        S728   1.813   1_655  S
S727        H730   1.408       .  S
S728        H729   1.393       .  S
C733        C734   1.399       .  A
C733        C738   1.404       .  A
C734        C735   1.409       .  A
C734        H743   1.083       .  S
C735        C736   1.435       .  A
C735        S739   1.807       .  S
C736        C737   1.411       .  A
C737        C738   1.384       .  A
C737        H744   1.076       .  S
C738        S740   1.805       .  S
S739        H742   1.407       .  S
S740        H741   1.406       .  S
C745        C746   1.432       .  A
C745        C750   1.418   1_545  A
C746        C747   1.406       .  A
C746        H755   1.079       .  S
C747        C748   1.397       .  A
C747        S751   1.805       .  S
C748        C749   1.407   1_545  A
C749        C750   1.390       .  A
C749        H756   1.082       .  S
C750        S752   1.798       .  S
S751        H754   1.407       .  S
S752        H753   1.407       .  S
C757        C758   1.428       .  A
C757        C762   1.432       .  A
C758        C759   1.402       .  A
C758        H767   1.076       .  S
C759        C760   1.402       .  A
C759        S763   1.802       .  S
C760        C761   1.403       .  A
C761        C762   1.401       .  A
C761        H768   1.084       .  S
C762        S764   1.810   1_545  S
S763        H766   1.404       .  S
S764        H765   1.407       .  S
C769        C770   1.424       .  A
C769        C774   1.438       .  A
C770        C771   1.403       .  A
C770        H779   1.077       .  S
C771        C772   1.404       .  A
C771        S775   1.808       .  S
C772        C773   1.392       .  A
C773        C774   1.400       .  A
C773        H780   1.083       .  S
C774        S776   1.810       .  S
S775        H778   1.404       .  S
S776        H777   1.406       .  S
C781        C782   1.431       .  A
C781        C786   1.425       .  A
C782        C783   1.410       .  A
C782        H791   1.077       .  S
C783        C784   1.398       .  A
C783        S787   1.796       .  S
C784        C785   1.403       .  A
C785        C786   1.389       .  A
C785        H792   1.084       .  S
C786        S788   1.798       .  S
S787        H790   1.408       .  S
S788        H789   1.408       .  S
C793        C794   1.423       .  A
C793        C798   1.434       .  A
C794        C795   1.405       .  A
C794        H803   1.083       .  S
C795        C796   1.415       .  A
C795        S799   1.803       .  S
C796        C797   1.401       .  A
C797        C798   1.407       .  A
C797        H804   1.082       .  S
C798        S800   1.801       .  S
S799        H802   1.394       .  S
S800        H801   1.408       .  S
C805        C806   1.404       .  A
C805        C810   1.448       .  A
C806        C807   1.395       .  A
C806        H815   1.078       .  S
C807        C808   1.427       .  A
C807        S811   1.809       .  S
C808        C809   1.391       .  A
C809        C810   1.412       .  A
C809        H816   1.082       .  S
C810        S812   1.805       .  S
S811        H814   1.408       .  S
S812        H813   1.406       .  S
C817        C818   1.398   1_565  A
C817        C822   1.443       .  A
C818        C819   1.390       .  A
C818        H827   1.072       .  S
C819        C820   1.425   1_545  A
C819        S823   1.811       .  S
C820        C821   1.396       .  A
C821        C822   1.411       .  A
C821        H828   1.082       .  S
C822        S824   1.810       .  S
S823        H826   1.407       .  S
S824        H825   1.407       .  S
C829        C830   1.405       .  A
C829        C834   1.398   1_545  A
C830        C831   1.389       .  A
C830        H839   1.079       .  S
C831        C832   1.424       .  A
C831        S835   1.813       .  S
C832        C833   1.432   1_545  A
C833        C834   1.395       .  A
C833        H840   1.079       .  S
C834        S836   1.800       .  S
S835        H838   1.406       .  S
S836        H837   1.408       .  S
C841        C842   1.425       .  A
C841        C846   1.434       .  A
C842        C843   1.403       .  A
C842        H851   1.082       .  S
C843        C844   1.411       .  A
C843        S847   1.803       .  S
C844        C845   1.402       .  A
C845        C846   1.405       .  A
C845        H852   1.084       .  S
C846        S848   1.793       .  S
S847        H850   1.408       .  S
S848        H849   1.405       .  S
C853        C854   1.406       .  A
C853        C858   1.401       .  A
C854        C855   1.400       .  A
C854        H863   1.084       .  S
C855        C856   1.427       .  A
C855        S859   1.803       .  S
C856        C857   1.433       .  A
C857        C858   1.401       .  A
C857        H864   1.079       .  S
C858        S860   1.799       .  S
S859        H862   1.408       .  S
S860        H861   1.406       .  S
C865        C866   1.422       .  A
C865        C870   1.440       .  A
C866        C867   1.395       .  A
C866        H875   1.078       .  S
C867        C868   1.400       .  A
C867        S871   1.802       .  S
C868        C869   1.402       .  A
C869        C870   1.409       .  A
C869        H876   1.084       .  S
C870        S872   1.809       .  S
S871        H874   1.409       .  S
S872        H873   1.391       .  S
C877        C878   1.418       .  A
C877        C882   1.445       .  A
C878        C879   1.400       .  A
C878        H887   1.078       .  S
C879        C880   1.406       .  A
C879        S883   1.804       .  S
C880        C881   1.386       .  A
C881        C882   1.395       .  A
C881        H888   1.085       .  S
C882        S884   1.803       .  S
S883        H886   1.404       .  S
S884        H885   1.408       .  S
C889        C890   1.403       .  A
C889        C894   1.404   1_655  A
C890        C891   1.413       .  A
C890        H899   1.084       .  S
C891        C892   1.429       .  A
C891        S895   1.797       .  S
C892        C893   1.431   1_655  A
C893        C894   1.403       .  A
C893        H900   1.081       .  S
C894        S896   1.809       .  S
S895        H898   1.407       .  S
S896        H897   1.399       .  S
C901        C902   1.396       .  A
C901        C906   1.401       .  A
C902        C903   1.408       .  A
C902        H911   1.083       .  S
C903        C904   1.436       .  A
C903        S907   1.801       .  S
C904        C905   1.432       .  A
C905        C906   1.401       .  A
C905        H912   1.077       .  S
C906        S908   1.811       .  S
S907        H910   1.407       .  S
S908        H909   1.402       .  S
C913        C914   1.425       .  A
C913        C918   1.435       .  A
C914        C915   1.394       .  A
C914        H923   1.074       .  S
C915        C916   1.401       .  A
C915        S919   1.812       .  S
C916        C917   1.395       .  A
C917        C918   1.406       .  A
C917        H924   1.077       .  S
C918        S920   1.807       .  S
S919        H922   1.407       .  S
S920        H921   1.406       .  S
C925        C926   1.399       .  A
C925        C930   1.404       .  A
C926        C927   1.413       .  A
C926        H935   1.083       .  S
C927        C928   1.444       .  A
C927        S931   1.810       .  S
C928        C929   1.424       .  A
C929        C930   1.393       .  A
C929        H936   1.082       .  S
C930        S932   1.801       .  S
S931        H934   1.406       .  S
S932        H933   1.399       .  S
C937        C938   1.394       .  A
C937        C942   1.406       .  A
C938        C939   1.412       .  A
C938        H947   1.083       .  S
C939        C940   1.443       .  A
C939        S943   1.804       .  S
C940        C941   1.423       .  A
C941        C942   1.412       .  A
C941        H948   1.080       .  S
C942        S944   1.796       .  S
S943        H946   1.407       .  S
S944        H945   1.407       .  S
C949        C950   1.419       .  A
C949        C954   1.427       .  A
C950        C951   1.380       .  A
C950        H959   1.079       .  S
C951        C952   1.399       .  A
C951        S955   1.799       .  S
C952        C953   1.406       .  A
C953        C954   1.405       .  A
C953        H960   1.083       .  S
C954        S956   1.807       .  S
S955        H958   1.408       .  S
S956        H957   1.407       .  S
C961        C962   1.403       .  A
C961        C966   1.395       .  A
C962        C963   1.416       .  A
C962        H971   1.083       .  S
C963        C964   1.432       .  A
C963        S967   1.808       .  S
C964        C965   1.419       .  A
C965        C966   1.376       .  A
C965        H972   1.074       .  S
C966        S968   1.805       .  S
S967        H970   1.407       .  S
S968        H969   1.405       .  S
C973        C974   1.426       .  A
C973        C978   1.430       .  A
C974        C975   1.392       .  A
C974        H983   1.080       .  S
C975        C976   1.409       .  A
C975        S979   1.808       .  S
C976        C977   1.410       .  A
C977        C978   1.421       .  A
C977        H984   1.082       .  S
C978        S980   1.804       .  S
S979        H982   1.401       .  S
S980        H981   1.406       .  S
C985        C986   1.398       .  A
C985        C990   1.405       .  A
C986        C987   1.411       .  A
C986        H995   1.082       .  S
C987        C988   1.438       .  A
C987        S991   1.808       .  S
C988        C989   1.415       .  A
C989        C990   1.384       .  A
C989        H996   1.072       .  S
C990        S992   1.809       .  S
S991        H994   1.406       .  S
S992        H993   1.390       .  S
C997        C998   1.419       .  A
C997       C1002   1.433       .  A
C998        C999   1.392       .  A
C998       H1007   1.083       .  S
C999       C1000   1.406       .  A
C999       S1003   1.799       .  S
C1000      C1001   1.401       .  A
C1001      C1002   1.407       .  A
C1001      H1008   1.082       .  S
C1002      S1004   1.800       .  S
S1003      H1006   1.396   1_455  S
S1004      H1005   1.407       .  S
C1009      C1010   1.395       .  A
C1009      C1014   1.414   1_655  A
C1010      C1011   1.410       .  A
C1010      H1019   1.083       .  S
C1011      C1012   1.443       .  A
C1011      S1015   1.808       .  S
C1012      C1013   1.414   1_655  A
C1013      C1014   1.408       .  A
C1013      H1020   1.080       .  S
C1014      S1016   1.790       .  S
S1015      H1018   1.407       .  S
S1016      H1017   1.407       .  S
C1021      C1022   1.397       .  A
C1021      C1026   1.408   1_655  A
C1022      C1023   1.414       .  A
C1022      H1031   1.083       .  S
C1023      C1024   1.441       .  A
C1023      S1027   1.809       .  S
C1024      C1025   1.420   1_655  A
C1025      C1026   1.406       .  A
C1025      H1032   1.076       .  S
C1026      S1028   1.799       .  S
S1027      H1030   1.407       .  S
S1028      H1029   1.404   1_455  S
C1033      C1034   1.406       .  A
C1033      C1038   1.411       .  A
C1034      C1035   1.409       .  A
C1034      H1043   1.080       .  S
C1035      C1036   1.435       .  A
C1035      S1039   1.814       .  S
C1036      C1037   1.417       .  A
C1037      C1038   1.384       .  A
C1037      H1044   1.083       .  S
C1038      S1040   1.809       .  S
S1039      H1042   1.406       .  S
S1040      H1041   1.388       .  S
C1045      C1046   1.397       .  A
C1045      C1050   1.396       .  A
C1046      C1047   1.406       .  A
C1046      H1055   1.076       .  S
C1047      C1048   1.438       .  A
C1047      S1051   1.815       .  S
C1048      C1049   1.426       .  A
C1049      C1050   1.390       .  A
C1049      H1056   1.083       .  S
C1050      S1052   1.806       .  S
S1051      H1054   1.407       .  S
S1052      H1053   1.406       .  S
C1057      C1058   1.395       .  A
C1057      C1062   1.398       .  A
C1058      C1059   1.403       .  A
C1058      H1067   1.081       .  S
C1059      C1060   1.434       .  A
C1059      S1063   1.808       .  S
C1060      C1061   1.423       .  A
C1061      C1062   1.378       .  A
C1061      H1068   1.072       .  S
C1062      S1064   1.817       .  S
S1063      H1066   1.407       .  S
S1064      H1065   1.401       .  S
C1069      C1070   1.405       .  A
C1069      C1074   1.415       .  A
C1070      C1071   1.421       .  A
C1070      H1079   1.083       .  S
C1071      C1072   1.446       .  A
C1071      S1075   1.812       .  S
C1072      C1073   1.423       .  A
C1073      C1074   1.406       .  A
C1073      H1080   1.083       .  S
C1074      S1076   1.801       .  S
S1075      H1078   1.407       .  S
S1076      H1077   1.388       .  S
C1081      C1082   1.402       .  A
C1081      C1086   1.407       .  A
C1082      C1083   1.416       .  A
C1082      H1091   1.083       .  S
C1083      C1084   1.440       .  A
C1083      S1087   1.808       .  S
C1084      C1085   1.420       .  A
C1085      C1086   1.397       .  A
C1085      H1092   1.081       .  S
C1086      S1088   1.801       .  S
S1087      H1090   1.407       .  S
S1088      H1089   1.399       .  S
C1093      C1094   1.402       .  A
C1093      C1098   1.403       .  A
C1094      C1095   1.407       .  A
C1094      H1103   1.084       .  S
C1095      C1096   1.428       .  A
C1095      S1099   1.797       .  S
C1096      C1097   1.417       .  A
C1097      C1098   1.377       .  A
C1097      H1104   1.081   1_565  S
C1098      S1100   1.810       .  S
S1099      H1102   1.407       .  S
S1100      H1101   1.407       .  S
C1105      C1106   1.386       .  A
C1105      C1110   1.414       .  A
C1106      C1107   1.394       .  A
C1106      H1115   1.084       .  S
C1107      C1108   1.444       .  A
C1107      S1111   1.808       .  S
C1108      C1109   1.414       .  A
C1109      C1110   1.409       .  A
C1109      H1116   1.078       .  S
C1110      S1112   1.795       .  S
S1111      H1114   1.407       .  S
S1112      H1113   1.406       .  S
C1117      C1118   1.390       .  A
C1117      C1122   1.404       .  A
C1118      C1119   1.402       .  A
C1118      H1127   1.084       .  S
C1119      C1120   1.448       .  A
C1119      S1123   1.812       .  S
C1120      C1121   1.420       .  A
C1121      C1122   1.399       .  A
C1121      H1128   1.083       .  S
C1122      S1124   1.804       .  S
S1123      H1126   1.408       .  S
S1124      H1125   1.402       .  S
C1129      C1130   1.424       .  A
C1129      C1134   1.436       .  A
C1130      C1131   1.411       .  A
C1130      H1139   1.078       .  S
C1131      C1132   1.417       .  A
C1131      S1135   1.802       .  S
C1132      C1133   1.401       .  A
C1133      C1134   1.410       .  A
C1133      H1140   1.082       .  S
C1134      S1136   1.803       .  S
S1135      H1138   1.399       .  S
S1136      H1137   1.407       .  S
C1141      C1142   1.435       .  A
C1141      C1146   1.437       .  A
C1142      C1143   1.410       .  A
C1142      H1151   1.081       .  S
C1143      C1144   1.400       .  A
C1143      S1147   1.795       .  S
C1144      C1145   1.405       .  A
C1145      C1146   1.396       .  A
C1145      H1152   1.082       .  S
C1146      S1148   1.816       .  S
S1147      H1150   1.405       .  S
S1148      H1149   1.390       .  S
C1153      C1154   1.399       .  A
C1153      C1158   1.410       .  A
C1154      C1155   1.406       .  A
C1154      H1163   1.082       .  S
C1155      C1156   1.431       .  A
C1155      S1159   1.804       .  S
C1156      C1157   1.418       .  A
C1157      C1158   1.409       .  A
C1157      H1164   1.079       .  S
C1158      S1160   1.804       .  S
S1159      H1162   1.408       .  S
S1160      H1161   1.407       .  S
C1165      C1166   1.389       .  A
C1165      C1170   1.402       .  A
C1166      C1167   1.408       .  A
C1166      H1175   1.081       .  S
C1167      C1168   1.443       .  A
C1167      S1171   1.802       .  S
C1168      C1169   1.417       .  A
C1169      C1170   1.394       .  A
C1169      H1176   1.078       .  S
C1170      S1172   1.800       .  S
S1171      H1174   1.402       .  S
S1172      H1173   1.405       .  S
C1177      C1178   1.419       .  A
C1177      C1182   1.443   1_556  A
C1178      C1179   1.398       .  A
C1178      H1187   1.076       .  S
C1179      C1180   1.408       .  A
C1179      S1183   1.802       .  S
C1180      C1181   1.399   1_556  A
C1181      C1182   1.405       .  A
C1181      H1188   1.084       .  S
C1182      S1184   1.818       .  S
S1183      H1186   1.407       .  S
S1184      H1185   1.395       .  S
C1189      C1190   1.409       .  A
C1189      C1194   1.459       .  A
C1190      C1191   1.395       .  A
C1190      H1199   1.060       .  S
C1191      C1192   1.396       .  A
C1191      S1195   1.802       .  S
C1192      C1193   1.387       .  A
C1193      C1194   1.406       .  A
C1193      H1200   1.084       .  S
C1194      S1196   1.805       .  S
S1195      H1198   1.406       .  S
S1196      H1197   1.402       .  S
C1201      C1202   1.422   1_556  A
C1201      C1206   1.441       .  A
C1202      C1203   1.401       .  A
C1202      H1211   1.084       .  S
C1203      C1204   1.410   1_554  A
C1203      S1207   1.799       .  S
C1204      C1205   1.402       .  A
C1205      C1206   1.408       .  A
C1205      H1212   1.082       .  S
C1206      S1208   1.811       .  S
S1207      H1210   1.407       .  S
S1208      H1209   1.407       .  S
C1213      C1214   1.415   1_556  A
C1213      C1218   1.442       .  A
C1214      C1215   1.390       .  A
C1214      H1223   1.078       .  S
C1215      C1216   1.405   1_554  A
C1215      S1219   1.806       .  S
C1216      C1217   1.388       .  A
C1217      C1218   1.394       .  A
C1217      H1224   1.085       .  S
C1218      S1220   1.803       .  S
S1219      H1222   1.397       .  S
S1220      H1221   1.408       .  S
C1225      C1226   1.414       .  A
C1225      C1230   1.429       .  A
C1226      C1227   1.408       .  A
C1226      H1235   1.080       .  S
C1227      C1228   1.419       .  A
C1227      S1231   1.806       .  S
C1228      C1229   1.406       .  A
C1229      C1230   1.415       .  A
C1229      H1236   1.083       .  S
C1230      S1232   1.793       .  S
S1231      H1234   1.398       .  S
S1232      H1233   1.406       .  S
C1237      C1238   1.434       .  A
C1237      C1242   1.450       .  A
C1238      C1239   1.398       .  A
C1238      H1247   1.075       .  S
C1239      C1240   1.396       .  A
C1239      S1243   1.804       .  S
C1240      C1241   1.384       .  A
C1241      C1242   1.395       .  A
C1241      H1248   1.085       .  S
C1242      S1244   1.798       .  S
S1243      H1246   1.400       .  S
S1244      H1245   1.409       .  S
C1249      C1250   1.423       .  A
C1249      C1254   1.434   1_556  A
C1250      C1251   1.408       .  A
C1250      H1259   1.082       .  S
C1251      C1252   1.412       .  A
C1251      S1255   1.809       .  S
C1252      C1253   1.403   1_556  A
C1253      C1254   1.403       .  A
C1253      H1260   1.082       .  S
C1254      S1256   1.812       .  S
S1255      H1258   1.407       .  S
S1256      H1257   1.406       .  S
C1261      C1262   1.432       .  A
C1261      C1266   1.442       .  A
C1262      C1263   1.408       .  A
C1262      H1271   1.083       .  S
C1263      C1264   1.406       .  A
C1263      S1267   1.800   1_565  S
C1264      C1265   1.397       .  A
C1265      C1266   1.392       .  A
C1265      H1272   1.085       .  S
C1266      S1268   1.812       .  S
S1267      H1270   1.406       .  S
S1268      H1269   1.409       .  S
C1273      C1274   1.427       .  A
C1273      C1278   1.430       .  A
C1274      C1275   1.397   1_554  A
C1274      H1283   1.076   1_554  S
C1275      C1276   1.394   1_556  A
C1275      S1279   1.809       .  S
C1276      C1277   1.400       .  A
C1277      C1278   1.409       .  A
C1277      H1284   1.082       .  S
C1278      S1280   1.809       .  S
S1279      H1282   1.407       .  S
S1280      H1281   1.407   1_554  S
C1285      C1286   1.389       .  A
C1285      C1290   1.431   1_554  A
C1286      C1287   1.411       .  A
C1286      H1295   1.083       .  S
C1287      C1288   1.446       .  A
C1287      S1291   1.800       .  S
C1288      C1289   1.397   1_554  A
C1289      C1290   1.391       .  A
C1289      H1296   1.076       .  S
C1290      S1292   1.806       .  S
S1291      H1294   1.407       .  S
S1292      H1293   1.408       .  S
C1297      C1298   1.406       .  A
C1297      C1302   1.416   1_545  A
C1298      C1299   1.405       .  A
C1298      H1307   1.082       .  S
C1299      C1300   1.433       .  A
C1299      S1303   1.812       .  S
C1300      C1301   1.420   1_545  A
C1301      C1302   1.402       .  A
C1301      H1308   1.078       .  S
C1302      S1304   1.802       .  S
S1303      H1306   1.407       .  S
S1304      H1305   1.405       .  S
C1309      C1310   1.401   1_545  A
C1309      C1314   1.413       .  A
C1310      C1311   1.407       .  A
C1310      H1319   1.082       .  S
C1311      C1312   1.438   1_565  A
C1311      S1315   1.813       .  S
C1312      C1313   1.416       .  A
C1313      C1314   1.396       .  A
C1313      H1320   1.078       .  S
C1314      S1316   1.801       .  S
S1315      H1318   1.406       .  S
S1316      H1317   1.396       .  S
C1321      C1322   1.391       .  A
C1321      C1326   1.407       .  A
C1322      C1323   1.398       .  A
C1322      H1331   1.085       .  S
C1323      C1324   1.445       .  A
C1323      S1327   1.803       .  S
C1324      C1325   1.426       .  A
C1325      C1326   1.405       .  A
C1325      H1332   1.083       .  S
C1326      S1328   1.801       .  S
S1327      H1330   1.408       .  S
S1328      H1329   1.404       .  S
C1333      C1334   1.394       .  A
C1333      C1338   1.421       .  A
C1334      C1335   1.393       .  A
C1334      H1343   1.084       .  S
C1335      C1336   1.443       .  A
C1335      S1339   1.797       .  S
C1336      C1337   1.416       .  A
C1337      C1338   1.413       .  A
C1337      H1344   1.083       .  S
C1338      S1340   1.799       .  S
S1339      H1342   1.396       .  S
S1340      H1341   1.408       .  S
C1345      C1346   1.415       .  A
C1345      C1350   1.433       .  A
C1346      C1347   1.381       .  A
C1346      H1355   1.071       .  S
C1347      C1348   1.414       .  A
C1347      S1351   1.812       .  S
C1348      C1349   1.404       .  A
C1349      C1350   1.406       .  A
C1349      H1356   1.081       .  S
C1350      S1352   1.811       .  S
S1351      H1354   1.398       .  S
S1352      H1353   1.406       .  S
C1357      C1358   1.431       .  A
C1357      C1362   1.432       .  A
C1358      C1359   1.388       .  A
C1358      H1367   1.075       .  S
C1359      C1360   1.393       .  A
C1359      S1363   1.812       .  S
C1360      C1361   1.396       .  A
C1361      C1362   1.402       .  A
C1361      H1368   1.082       .  S
C1362      S1364   1.811       .  S
S1363      H1366   1.403       .  S
S1364      H1365   1.406       .  S
C1369      C1370   1.408       .  A
C1369      C1374   1.415       .  A
C1370      C1371   1.413       .  A
C1370      H1379   1.079       .  S
C1371      C1372   1.425       .  A
C1371      S1375   1.797       .  S
C1372      C1373   1.419       .  A
C1373      C1374   1.399       .  A
C1373      H1380   1.084       .  S
C1374      S1376   1.799       .  S
S1375      H1378   1.406       .  S
S1376      H1377   1.408       .  S
C1381      C1382   1.428       .  A
C1381      C1386   1.456       .  A
C1382      C1383   1.403       .  A
C1382      H1391   1.072       .  S
C1383      C1384   1.407       .  A
C1383      S1387   1.806       .  S
C1384      C1385   1.399       .  A
C1385      C1386   1.414       .  A
C1385      H1392   1.082       .  S
C1386      S1388   1.824   1_554  S
S1387      H1390   1.406       .  S
S1388      H1389   1.406       .  S
C1393      C1394   1.402       .  A
C1393      C1398   1.403       .  A
C1394      C1395   1.399       .  A
C1394      H1403   1.083       .  S
C1395      C1396   1.434       .  A
C1395      S1399   1.807       .  S
C1396      C1397   1.423       .  A
C1397      C1398   1.381       .  A
C1397      H1404   1.068   1_554  S
C1398      S1400   1.808       .  S
S1399      H1402   1.407       .  S
S1400      H1401   1.409       .  S
C1405      C1406   1.402       .  A
C1405      C1410   1.391       .  A
C1406      C1407   1.410       .  A
C1406      H1415   1.077       .  S
C1407      C1408   1.433       .  A
C1407      S1411   1.807       .  S
C1408      C1409   1.423       .  A
C1409      C1410   1.381       .  A
C1409      H1416   1.080       .  S
C1410      S1412   1.796       .  S
S1411      H1414   1.408       .  S
S1412      H1413   1.407       .  S
C1417      C1418   1.395       .  A
C1417      C1422   1.414       .  A
C1418      C1419   1.400       .  A
C1418      H1427   1.079       .  S
C1419      C1420   1.440       .  A
C1419      S1423   1.813   1_554  S
C1420      C1421   1.426       .  A
C1421      C1422   1.413       .  A
C1421      H1428   1.075       .  S
C1422      S1424   1.802       .  S
S1423      H1426   1.406   1_556  S
S1424      H1425   1.400       .  S
C1429      C1430   1.418       .  A
C1429      C1434   1.436       .  A
C1430      C1431   1.407       .  A
C1430      H1439   1.078       .  S
C1431      C1432   1.414       .  A
C1431      S1435   1.798       .  S
C1432      C1433   1.396       .  A
C1433      C1434   1.403       .  A
C1433      H1440   1.082       .  S
C1434      S1436   1.800       .  S
S1435      H1438   1.402       .  S
S1436      H1437   1.408       .  S
C1441      C1442   1.427       .  A
C1441      C1446   1.441       .  A
C1442      C1443   1.398       .  A
C1442      H1451   1.083       .  S
C1443      C1444   1.408       .  A
C1443      S1447   1.812       .  S
C1444      C1445   1.410       .  A
C1445      C1446   1.420       .  A
C1445      H1452   1.083       .  S
C1446      S1448   1.809       .  S
S1447      H1450   1.399       .  S
S1448      H1449   1.392       .  S
C1453      C1454   1.418       .  A
C1453      C1458   1.451       .  A
C1454      C1455   1.403       .  A
C1454      H1463   1.075       .  S
C1455      C1456   1.402       .  A
C1455      S1459   1.801       .  S
C1456      C1457   1.386       .  A
C1457      C1458   1.404       .  A
C1457      H1464   1.083       .  S
C1458      S1460   1.809       .  S
S1459      H1462   1.407       .  S
S1460      H1461   1.408       .  S
C1465      C1466   1.401   1_545  A
C1465      C1470   1.415       .  A
C1466      C1467   1.408       .  A
C1466      H1475   1.079       .  S
C1467      C1468   1.445   1_565  A
C1467      S1471   1.817       .  S
C1468      C1469   1.423       .  A
C1469      C1470   1.409       .  A
C1469      H1476   1.083       .  S
C1470      S1472   1.801       .  S
S1471      H1474   1.407       .  S
S1472      H1473   1.406       .  S
C1477      C1478   1.385       .  A
C1477      C1482   1.415       .  A
C1478      C1479   1.402       .  A
C1478      H1487   1.082       .  S
C1479      C1480   1.454       .  A
C1479      S1483   1.812       .  S
C1480      C1481   1.416       .  A
C1481      C1482   1.412       .  A
C1481      H1488   1.082       .  S
C1482      S1484   1.802       .  S
S1483      H1486   1.408   1_545  S
S1484      H1485   1.396       .  S
C1489      C1490   1.406       .  A
C1489      C1494   1.406       .  A
C1490      C1491   1.410       .  A
C1490      H1499   1.083       .  S
C1491      C1492   1.424       .  A
C1491      S1495   1.810       .  S
C1492      C1493   1.419       .  A
C1493      C1494   1.402       .  A
C1493      H1500   1.076       .  S
C1494      S1496   1.803       .  S
S1495      H1498   1.406       .  S
S1496      H1497   1.407       .  S
C1501      C1502   1.385       .  A
C1501      C1506   1.419       .  A
C1502      C1503   1.388       .  A
C1502      H1511   1.084       .  S
C1503      C1504   1.449       .  A
C1503      S1507   1.807       .  S
C1504      C1505   1.413       .  A
C1505      C1506   1.403       .  A
C1505      H1512   1.082       .  S
C1506      S1508   1.803       .  S
S1507      H1510   1.409       .  S
S1508      H1509   1.406       .  S
C1513      C1514   1.424       .  A
C1513      C1518   1.429       .  A
C1514      C1515   1.390       .  A
C1514      H1523   1.072       .  S
C1515      C1516   1.402       .  A
C1515      S1519   1.810       .  S
C1516      C1517   1.394       .  A
C1517      C1518   1.402       .  A
C1517      H1524   1.078       .  S
C1518      S1520   1.806       .  S
S1519      H1522   1.406       .  S
S1520      H1521   1.405       .  S
C1525      C1526   1.401       .  A
C1525      C1530   1.410       .  A
C1526      C1527   1.412       .  A
C1526      H1535   1.084       .  S
C1527      C1528   1.440       .  A
C1527      S1531   1.801       .  S
C1528      C1529   1.420       .  A
C1529      C1530   1.411       .  A
C1529      H1536   1.078       .  S
C1530      S1532   1.790       .  S
S1531      H1534   1.406       .  S
S1532      H1533   1.407       .  S
C1537      C1538   1.425       .  A
C1537      C1542   1.432       .  A
C1538      C1539   1.402       .  A
C1538      H1547   1.084       .  S
C1539      C1540   1.411       .  A
C1539      S1543   1.804       .  S
C1540      C1541   1.405       .  A
C1541      C1542   1.405       .  A
C1541      H1548   1.084       .  S
C1542      S1544   1.801       .  S
S1543      H1546   1.407       .  S
S1544      H1545   1.393       .  S
C1549      C1550   1.396       .  A
C1549      C1554   1.414       .  A
C1550      C1551   1.405       .  A
C1550      H1559   1.082       .  S
C1551      C1552   1.438       .  A
C1551      S1555   1.802       .  S
C1552      C1553   1.418       .  A
C1553      C1554   1.399       .  A
C1553      H1560   1.075       .  S
C1554      S1556   1.811       .  S
S1555      H1558   1.406       .  S
S1556      H1557   1.407       .  S
C1561      C1562   1.426       .  A
C1561      C1566   1.450       .  A
C1562      C1563   1.401       .  A
C1562      H1571   1.084       .  S
C1563      C1564   1.402       .  A
C1563      S1567   1.801       .  S
C1564      C1565   1.384       .  A
C1565      C1566   1.387       .  A
C1565      H1572   1.086       .  S
C1566      S1568   1.808       .  S
S1567      H1570   1.405       .  S
S1568      H1569   1.408       .  S
C1573      C1574   1.413       .  A
C1573      C1578   1.411       .  A
C1574      C1575   1.427       .  A
C1574      H1583   1.082       .  S
C1575      C1576   1.435       .  A
C1575      S1579   1.807       .  S
C1576      C1577   1.427       .  A
C1577      C1578   1.400       .  A
C1577      H1584   1.079   1_556  S
C1578      S1580   1.805       .  S
S1579      H1582   1.407       .  S
S1580      H1581   1.408       .  S
C1585      C1586   1.391       .  A
C1585      C1590   1.412       .  A
C1586      C1587   1.403       .  A
C1586      H1595   1.084       .  S
C1587      C1588   1.442       .  A
C1587      S1591   1.806       .  S
C1588      C1589   1.416       .  A
C1589      C1590   1.404       .  A
C1589      H1596   1.078       .  S
C1590      S1592   1.800       .  S
S1591      H1594   1.408       .  S
S1592      H1593   1.401       .  S
C1597      C1598   1.420       .  A
C1597      C1602   1.440       .  A
C1598      C1599   1.388       .  A
C1598      H1607   1.077       .  S
C1599      C1600   1.410       .  A
C1599      S1603   1.811       .  S
C1600      C1601   1.394       .  A
C1601      C1602   1.399       .  A
C1601      H1608   1.082       .  S
C1602      S1604   1.812       .  S
S1603      H1606   1.400       .  S
S1604      H1605   1.391   1_556  S
