geometry optimzed in LAMMPS
_audit_creation_date              2020-11-30 
_audit_creation_method            'lammps2cif' 
_symmetry_space_group_name_H-M    'P1' 
_symmetry_Int_Tables_number       1 
_symmetry_cell_setting            triclinic 
loop_ 
_symmetry_equiv_pos_as_xyz 
  x,y,z 
_cell_length_a                    43.14231305 
_cell_length_b                    43.069075198163326 
_cell_length_c                    60.12040872272855 
_cell_angle_alpha                 90.41026335122271 
_cell_angle_beta                  88.97283547409056 
_cell_angle_gamma                 119.8494013759242 
loop_ 
_atom_site_label 
_atom_site_type_symbol 
_atom_site_fract_x 
_atom_site_fract_y 
_atom_site_fract_z 
_atom_site_charge 
C1          C  0.00970659  0.78576481  0.72363963     0.86300
C2          C  0.97876568  0.79371922  0.72689800    -0.54000
C3          C  0.98249984  0.81546094  0.74460415     0.09200
C4          C  0.01652070  0.82627899  0.75803435     0.20200
C5          C  0.04369980  0.82292834  0.72293413    -0.54700
C6          C  0.04717854  0.84406858  0.74082903     0.09300
C7          C  0.01140671  0.76989415  0.74623222    -0.54200
C8          C  0.01534561  0.79116582  0.76407816     0.09900
H9          H  0.95669446  0.78434902  0.71546184     0.14400
H10         H  0.01949488  0.84328492  0.77270846     0.00100
H11         H  0.06263872  0.83225450  0.70904570     0.14700
H12         H  0.00965796  0.74426770  0.74871636     0.14500
C13         C  0.81223453  0.97239185  0.73367245     0.86300
C14         C  0.85114925  0.00398643  0.73540731    -0.54000
C15         C  0.86898307  0.00199253  0.75347902     0.09200
C16         C  0.84646999  0.96896616  0.76817462     0.20200
C17         C  0.81643726  0.93898703  0.73429562    -0.54700
C18         C  0.83530510  0.93757040  0.75188155     0.09300
C19         C  0.79489621  0.97262385  0.75601186    -0.54200
C20         C  0.81226433  0.97039839  0.77408576     0.09900
H21         H  0.86488980  0.02460474  0.72298941     0.14400
H22         H  0.86074267  0.96737066  0.78292186     0.00100
H23         H  0.80750097  0.91949125  0.72091633     0.14700
H24         H  0.77067543  0.97439172  0.75741769     0.14500
C25         C  0.19683158  0.16666719  0.77992480     0.86300
C26         C  0.15749252  0.15820900  0.78063424    -0.54000
C27         C  0.13790449  0.13876926  0.76290059     0.09200
C28         C  0.15931579  0.13017701  0.74572073     0.20200
C29         C  0.19306986  0.12927977  0.77749250    -0.54700
C30         C  0.17372658  0.11037399  0.75954563     0.09300
C31         C  0.21167593  0.18517437  0.75742490    -0.54200
C32         C  0.19223511  0.16631414  0.73957954     0.09900
H33         H  0.14471971  0.16386806  0.79447701     0.14400
H34         H  0.14341127  0.11455442  0.73124110     0.00100
H35         H  0.20312703  0.11797209  0.78957494     0.14700
H36         H  0.23584385  0.21104802  0.75573183     0.14500
In37       In  0.69196970  0.65794159  0.04718531     1.36900
C38         C  0.71722598  0.68427558  0.08718268     0.77400
O39         O  0.71746237  0.62328062  0.04666806    -0.61100
O40         O  0.73641910  0.66687732  0.02424944    -0.52000
C41         C  0.63158760  0.60264934  0.03317806     0.70000
O42         O  0.64214882  0.60454682  0.05287592    -0.46800
C43         C  0.68333269  0.71058332  0.03226066     0.74700
O44         O  0.68778821  0.65565767  0.08478951    -0.58700
O45         O  0.70685861  0.70394253  0.02467711    -0.48800
O46         O  0.73318133  0.69871511  0.06925019    -0.55100
C47         C  0.73920096  0.64091077  0.03123568     0.84900
O48         O  0.65168452  0.62898831  0.02103899    -0.57000
O49         O  0.66404123  0.68995387  0.04779089    -0.60300
In50       In  0.01768540  0.65633812  0.95181469     1.36900
C51         C  0.01746121  0.68486537  0.91259701     0.77400
O52         O  0.95746469  0.62381474  0.95130090    -0.61100
O53         O  0.98245666  0.66037357  0.97764564    -0.52000
C54         C  0.02196634  0.59887033  0.96331214     0.70000
O55         O  0.01784012  0.60500702  0.94336690    -0.46800
C56         C  0.07828008  0.71083488  0.96672996     0.74700
O57         O  0.02326317  0.65892894  0.91415013    -0.58700
O58         O  0.04772858  0.70357858  0.97378582    -0.48800
O59         O  0.01056016  0.69468638  0.93086873    -0.55100
C60         C  0.95356378  0.63770634  0.96892881     0.84900
O61         O  0.02415397  0.62225230  0.97686449    -0.57000
O62         O  0.07788198  0.68966199  0.95195989    -0.60300
In63       In  0.68091033  0.98584929  0.96358108     1.36900
C64         C  0.70496258  0.98069841  0.92303454     0.77400
O65         O  0.71251588  0.04598988  0.96002995    -0.61100
O66         O  0.72622403  0.02109226  0.98522462    -0.52000
C67         C  0.62261620  0.98665730  0.97886546     0.70000
O68         O  0.62690733  0.98162527  0.95854750    -0.46800
C69         C  0.66991404  0.92459665  0.98089002     0.74700
O70         O  0.67835126  0.98527439  0.92575014    -0.58700
O71         O  0.69455151  0.95486257  0.98688905    -0.48800
O72         O  0.71870647  0.97907397  0.94095887    -0.55100
C73         C  0.73285022  0.04991044  0.97597262     0.84900
O74         O  0.64833287  0.99172511  0.99081269    -0.57000
O75         O  0.64997890  0.92569567  0.96616774    -0.60300
In76       In  0.02113472  0.31969030  0.03353568     1.36900
C77         C  0.01982920  0.29075305  0.07291987     0.77400
O78         O  0.96111348  0.28973247  0.03599002    -0.61100
O79         O  0.98650845  0.27729145  0.00971023    -0.52000
C80         C  0.02432984  0.38008337  0.02036302     0.70000
O81         O  0.03143025  0.37586795  0.04005535    -0.46800
C82         C  0.08274529  0.32795407  0.01840384     0.74700
O83         O  0.01451958  0.31704005  0.07125589    -0.58700
O84         O  0.05286321  0.30483365  0.01101320    -0.48800
O85         O  0.02546670  0.28006917  0.05460290    -0.55100
C86         C  0.95748099  0.27069824  0.01906394     0.84900
O87         O  0.01573561  0.35360718  0.00783417    -0.57000
O88         O  0.08125431  0.34855135  0.03290635    -0.60300
In89       In  0.36426065  0.32539011  0.95525043     1.36900
C90         C  0.34239366  0.29902849  0.91445768     0.77400
O91         O  0.39818167  0.29944952  0.95910975    -0.61100
O92         O  0.35417330  0.28414445  0.98120525    -0.52000
C93         C  0.42043399  0.38741990  0.96743802     0.70000
O94         O  0.42004275  0.37238982  0.94924827    -0.46800
C95         C  0.30726527  0.33017791  0.96775334     0.74700
O96         O  0.36017254  0.33220814  0.91823912    -0.58700
O97         O  0.31607681  0.30961004  0.97706707    -0.48800
O98         O  0.33757133  0.27985439  0.93130453    -0.55100
C99         C  0.38015091  0.28002599  0.97535765     0.84900
O100        O  0.39188381  0.37118574  0.97865345    -0.57000
O101        O  0.32778980  0.34828615  0.95193625    -0.60300
In102      In  0.34213987  0.99038455  0.04671487     1.36900
C103        C  0.31025507  0.98743660  0.08584656     0.77400
O104        O  0.37525337  0.04996930  0.05274468    -0.61100
O105        O  0.34365831  0.03167366  0.02384833    -0.52000
C106        C  0.40068428  0.98807464  0.03478436     0.70000
O107        O  0.38725096  0.97957824  0.05418900    -0.46800
C108        C  0.29074655  0.93106536  0.02801232     0.74700
O109        O  0.33964128  0.98760300  0.08430934    -0.58700
O110        O  0.29771957  0.96216508  0.02263459    -0.48800
O111        O  0.29770941  0.98885672  0.06737262    -0.55100
C112        C  0.36571097  0.05821223  0.03504852     0.84900
O113        O  0.38350249  0.99649633  0.02180547    -0.57000
O114        O  0.31095786  0.93039226  0.04269254    -0.60300
C115        C  0.81540979  0.78073814  0.27921825     0.86300
C116        C  0.85502687  0.79137295  0.27657100    -0.54000
C117        C  0.87209572  0.81208760  0.25827603     0.09200
C118        C  0.84724311  0.81960472  0.24392194     0.20200
C119        C  0.81517067  0.81642340  0.27827471    -0.54700
C120        C  0.83244344  0.83704980  0.26010673     0.09300
C121        C  0.79845388  0.76259045  0.25703340    -0.54200
C122        C  0.81483788  0.78287339  0.23863075     0.09900
H123        H  0.86868698  0.78428068  0.28879634     0.14400
H124        H  0.86024146  0.83574990  0.22878301     0.00100
H125        H  0.80376734  0.82549272  0.29126962     0.14700
H126        H  0.77479087  0.73655377  0.25556747     0.14500
C127        C  0.00184759  0.15645371  0.21535373     0.86300
C128        C  0.03394918  0.15040881  0.21841957    -0.54000
C129        C  0.03325191  0.13400105  0.23805268     0.09200
C130        C  0.00051405  0.12547068  0.25291903     0.20200
C131        C  0.96927384  0.11835317  0.21834415    -0.54700
C132        C  0.96875766  0.10241583  0.23799133     0.09300
C133        C  0.00107305  0.17689689  0.23615793    -0.54200
C134        C  0.00041343  0.16090789  0.25575119     0.09900
H135        H  0.05378718  0.15607496  0.20536950     0.14400
H136        H  0.99965044  0.11237605  0.26895160     0.00100
H137        H  0.94981096  0.10340489  0.20575566     0.14700
H138        H  0.00123758  0.20217476  0.23540206     0.14500
C139        C  0.19819556  0.97287015  0.27773767     0.86300
C140        C  0.19362850  0.00620491  0.27698012    -0.54000
C141        C  0.17441811  0.00708243  0.25931957     0.09200
C142        C  0.16304459  0.97528698  0.24332984     0.20200
C143        C  0.15999300  0.94083008  0.27591623    -0.54700
C144        C  0.14113174  0.94256445  0.25839079     0.09300
C145        C  0.21583392  0.97345742  0.25510258    -0.54200
C146        C  0.19747945  0.97446560  0.23713141     0.09900
H147        H  0.20336773  0.02638786  0.28994436     0.14400
H148        H  0.14798470  0.97601208  0.22875714     0.00100
H149        H  0.14826297  0.91954399  0.28823018     0.14700
H150        H  0.24069537  0.97340132  0.25278213     0.14500
In151      In  0.65432235  0.62228558  0.46018947     1.36900
C152        C  0.68511907  0.64732920  0.42028268     0.77400
O153        O  0.63970708  0.66526528  0.45664674    -0.61100
O154        O  0.66342299  0.66266202  0.48669107    -0.52000
C155        C  0.59019673  0.56519001  0.46934497     0.70000
O156        O  0.60378956  0.59362473  0.48047927    -0.46800
C157        C  0.69864543  0.60416514  0.47875079     0.74700
O158        O  0.70225693  0.65232681  0.43792108    -0.58700
O159        O  0.67691645  0.58562608  0.46389890    -0.48800
O160        O  0.65161502  0.62877441  0.42296392    -0.55100
C161        C  0.65096098  0.67860082  0.47558353     0.84900
O162        O  0.60890834  0.56628030  0.45267501    -0.57000
O163        O  0.69659891  0.63130116  0.48455259    -0.60300
In164      In  0.98233900  0.61970370  0.54018585     1.36900
C165        C  0.98512529  0.64639790  0.58077372     0.77400
O166        O  0.04200148  0.65344086  0.53975662    -0.61100
O167        O  0.01292719  0.66654038  0.51734097    -0.52000
C168        C  0.98561205  0.56362765  0.52359923     0.70000
O169        O  0.98045919  0.56639924  0.54414733    -0.46800
C170        C  0.91670592  0.60147603  0.52771855     0.74700
O171        O  0.99444564  0.62321401  0.57702081    -0.58700
O172        O  0.94467964  0.62630926  0.51873579    -0.48800
O173        O  0.97349842  0.65453603  0.56403105    -0.55100
C174        C  0.04316852  0.67393309  0.52446297     0.84900
O175        O  0.98931809  0.58958616  0.51214386    -0.57000
O176        O  0.92225607  0.58573081  0.54351513    -0.60300
In177      In  0.31180338  0.28698534  0.54414929     1.36900
C178        C  0.28396522  0.26485839  0.58508905     0.77400
O179        O  0.28271297  0.31817973  0.54227427    -0.61100
O180        O  0.27167810  0.27754582  0.51846646    -0.52000
C181        C  0.37125114  0.34366141  0.52848663     0.70000
O182        O  0.36196129  0.34079907  0.54879151    -0.46800
C183        C  0.32099472  0.23249944  0.53266889     0.74700
O184        O  0.31515824  0.29096872  0.58179699    -0.58700
O185        O  0.29656716  0.23718780  0.52516073    -0.48800
O186        O  0.26752948  0.25082404  0.56745441    -0.55100
C187        C  0.26529093  0.30149967  0.52535935     0.84900
O188        O  0.35065582  0.31721411  0.51686088    -0.57000
O189        O  0.34134120  0.25623613  0.54618215    -0.60300
In190      In  0.32620281  0.95642261  0.46491397     1.36900
C191        C  0.30720544  0.95986838  0.42349783     0.77400
O192        O  0.29177600  0.89665134  0.46177836    -0.61100
O193        O  0.27715780  0.92365700  0.48568446    -0.52000
C194        C  0.38392103  0.95528670  0.47878276     0.70000
O195        O  0.38285849  0.96746913  0.45996413    -0.46800
C196        C  0.33656347  0.01743547  0.48269105     0.74700
O197        O  0.32414338  0.94388002  0.42807627    -0.58700
O198        O  0.31245397  0.98705006  0.48939592    -0.48800
O199        O  0.30100748  0.97431981  0.43991791    -0.55100
C200        C  0.27010549  0.89419783  0.47696528     0.84900
O201        O  0.35563384  0.94387145  0.49020085    -0.57000
O202        O  0.35613577  0.01639573  0.46717331    -0.60300
In203      In  0.98771731  0.28616853  0.44790589     1.36900
C204        C  0.98789947  0.26046445  0.40700071     0.77400
O205        O  0.04797578  0.31323876  0.44588931    -0.61100
O206        O  0.01976225  0.27426788  0.47092079    -0.52000
C207        C  0.98968007  0.34704522  0.46046014     0.70000
O208        O  0.97253188  0.32949842  0.44366215    -0.46800
C209        C  0.92969396  0.23691047  0.46961506     0.74700
O210        O  0.99357233  0.29188237  0.41017647    -0.58700
O211        O  0.96101827  0.24439473  0.47393448    -0.48800
O212        O  0.98085452  0.24237852  0.42456783    -0.55100
C213        C  0.04965971  0.29654153  0.46264075     0.84900
O214        O  0.00563526  0.33350468  0.47017657    -0.57000
O215        O  0.92778626  0.25523917  0.45393462    -0.60300
In216      In  0.66241300  0.96020586  0.55136640     1.36900
C217        C  0.68032539  0.95781475  0.59338185     0.77400
O218        O  0.63224016  0.90047535  0.54830978    -0.61100
O219        O  0.68069418  0.93025440  0.52981389    -0.52000
C220        C  0.60301375  0.95729181  0.53661226     0.70000
O221        O  0.60703023  0.95245041  0.55679148    -0.46800
C222        C  0.71724432  0.02195607  0.53716249     0.74700
O223        O  0.68578305  0.94182240  0.57757127    -0.58700
O224        O  0.71117625  0.99183083  0.53025533    -0.48800
O225        O  0.66462739  0.97458339  0.58782606    -0.55100
C226        C  0.65484362  0.89984415  0.53490628     0.84900
O227        O  0.62953234  0.96402884  0.52432286    -0.57000
O228        O  0.69498877  0.02049983  0.55158309    -0.60300
C229        C  0.74778942  0.05572739  0.52857988    -0.20100
C230        C  0.75589266  0.08977049  0.53685491     0.36100
C231        C  0.78466373  0.12072084  0.52739273    -0.26100
C232        C  0.80557234  0.11818184  0.51018949     0.02600
C233        C  0.79777606  0.08444061  0.50200699     0.27400
C234        C  0.76903141  0.05356719  0.51129540    -0.25200
N235        N  0.73516849  0.09292892  0.55479740    -0.82600
H236        H  0.79121381  0.14691412  0.53364716     0.13200
C237        C  0.83666240  0.15087699  0.50131174     0.02500
N238        N  0.81928564  0.08176928  0.48436254    -0.81100
H239        H  0.76311080  0.02766306  0.50485073     0.18000
C240        C  0.87062322  0.15999276  0.50878706    -0.26000
C241        C  0.90144853  0.18840383  0.49910661     0.36000
C242        C  0.89801011  0.20834877  0.48158088    -0.20000
C243        C  0.86365385  0.19999581  0.47487391    -0.25300
C244        C  0.83290232  0.17120932  0.48447779     0.27400
H245        H  0.87305867  0.14405442  0.52178529     0.13200
N246        N  0.93601860  0.19650685  0.50688341    -0.82500
H247        H  0.86075833  0.21529958  0.46166798     0.18000
N248        N  0.79792925  0.16211636  0.47698939    -0.81100
H249        H  0.93349587  0.18113660  0.52090365     0.33700
H250        H  0.94793991  0.18860989  0.49447878     0.38200
H251        H  0.79976417  0.17992465  0.46462097     0.33600
H252        H  0.78670302  0.13685006  0.46958218     0.30300
H253        H  0.81028878  0.05496299  0.48041406     0.33600
H254        H  0.81577827  0.09350982  0.47017400     0.30300
H255        H  0.73997180  0.08226860  0.56903890     0.38200
H256        H  0.74395771  0.11984418  0.55828015     0.33700
C257        C  0.41567887  0.95469695  0.48704587    -0.20100
C258        C  0.41225227  0.92878647  0.50268421     0.36100
C259        C  0.44310620  0.93017973  0.51102869    -0.26100
C260        C  0.47724146  0.95662076  0.50390332     0.02600
C261        C  0.48070531  0.98222415  0.48804562     0.27400
C262        C  0.44983266  0.98088079  0.47968413    -0.25200
N263        N  0.37748163  0.90071822  0.50968425    -0.82600
H264        H  0.44056790  0.91015021  0.52286389     0.13200
C265        C  0.50907000  0.95634671  0.51261795     0.02500
N266        N  0.51556049  0.00962319  0.48067650    -0.81100
H267        H  0.45245189  0.00079457  0.46772997     0.18000
C268        C  0.53220904  0.95252277  0.49765203    -0.26000
C269        C  0.56256434  0.95190174  0.50508463     0.36000
C270        C  0.57019323  0.95564018  0.52806698    -0.20000
C271        C  0.54647404  0.95857548  0.54309058    -0.25300
C272        C  0.51604631  0.95909927  0.53559861     0.27400
H273        H  0.52625428  0.94957593  0.48007094     0.13200
N274        N  0.58531887  0.94705163  0.48937070    -0.82500
H275        H  0.55208482  0.96124698  0.56071118     0.18000
N276        N  0.49247363  0.96289721  0.55117352    -0.81100
H277        H  0.57622547  0.94536498  0.47315838     0.33700
H278        H  0.58334516  0.92235990  0.49281969     0.38200
H279        H  0.50126230  0.96438631  0.56744601     0.33600
H280        H  0.49376534  0.98732029  0.54786911     0.30300
H281        H  0.51347436  0.02624307  0.46892467     0.33600
H282        H  0.52843752  0.02567895  0.49439753     0.30300
H283        H  0.36517112  0.88491130  0.49576868     0.38200
H284        H  0.37968482  0.88397788  0.52129193     0.33700
C285        C  0.32528669  0.20168360  0.52603934    -0.20100
C286        C  0.29692287  0.17083559  0.51630528     0.36100
C287        C  0.30232416  0.14258134  0.50972682    -0.26100
C288        C  0.33500730  0.14397006  0.51315728     0.02600
C289        C  0.36326731  0.17445908  0.52302158     0.27400
C290        C  0.35817463  0.20315509  0.52930452    -0.25200
N291        N  0.26251816  0.16789747  0.51351064    -0.82600
H292        H  0.28069970  0.11895440  0.50218407     0.13200
C293        C  0.33836598  0.11245529  0.50694910     0.02500
N294        N  0.39675817  0.17590929  0.52683261    -0.81100
H295        H  0.37994654  0.22672855  0.53677148     0.18000
C296        C  0.36244403  0.11539665  0.49002376    -0.26000
C297        C  0.36375739  0.08510074  0.48238409     0.36000
C298        C  0.34006140  0.05113598  0.49179001    -0.20000
C299        C  0.31706710  0.04875451  0.50937403    -0.25300
C300        C  0.31605550  0.07903473  0.51707061     0.27400
H301        H  0.37960412  0.14127516  0.48239342     0.13200
N302        N  0.38826249  0.08868575  0.46474031    -0.82500
H303        H  0.29914634  0.02298440  0.51687711     0.18000
N304        N  0.29199144  0.07597457  0.53488581    -0.81100
H305        H  0.40260460  0.11518043  0.45913332     0.33700
H306        H  0.40701498  0.08288794  0.47143010     0.38200
H307        H  0.27716496  0.04948993  0.54043899     0.33600
H308        H  0.30747726  0.09103601  0.54825072     0.30300
H309        H  0.41479988  0.20022888  0.53419557     0.33600
H310        H  0.39200623  0.15582541  0.53831165     0.30300
H311        H  0.25174611  0.16693409  0.52938182     0.38200
H312        H  0.24493445  0.14379800  0.50573252     0.33700
C313        C  0.08364407  0.30255875  0.47213204    -0.20100
C314        C  0.08436664  0.28863298  0.49327035     0.36100
C315        C  0.11669758  0.29308453  0.50114273    -0.26100
C316        C  0.14853794  0.31212940  0.48882325     0.02600
C317        C  0.14826332  0.32738311  0.46820781     0.27400
C318        C  0.11572802  0.32223078  0.45997214    -0.25200
N319        N  0.05240560  0.27011613  0.50676304    -0.82600
H320        H  0.11706305  0.28135429  0.51695678     0.13200
C321        C  0.18141551  0.31397549  0.49733962     0.02500
N322        N  0.18101394  0.34794842  0.45576829    -0.81100
H323        H  0.11540698  0.33337493  0.44393637     0.18000
C324        C  0.19853337  0.29953411  0.48445820    -0.26000
C325        C  0.22736515  0.29705933  0.49281650     0.36000
C326        C  0.23864253  0.30840775  0.51479332    -0.20000
C327        C  0.22267645  0.32453948  0.52726883    -0.25300
C328        C  0.19416533  0.32751700  0.51871976     0.27400
H329        H  0.18873516  0.28930101  0.46800696     0.13200
N330        N  0.24499070  0.28280039  0.47912534    -0.82500
H331        H  0.23163671  0.33374744  0.54399916     0.18000
N332        N  0.17763169  0.34359698  0.53175850    -0.81100
H333        H  0.23312555  0.27536651  0.46352869     0.33700
H334        H  0.27123775  0.30341022  0.47630961     0.38200
H335        H  0.19005871  0.35207015  0.54713530     0.33600
H336        H  0.18184786  0.36656889  0.52333784     0.30300
H337        H  0.17624542  0.35731292  0.44094592     0.33600
H338        H  0.19755669  0.37052348  0.46521345     0.30300
H339        H  0.04473613  0.28877656  0.51147557     0.38200
H340        H  0.05748800  0.26078432  0.52148992     0.33700
C341        C  0.98676264  0.53245018  0.51359188    -0.20100
C342        C  0.99474760  0.53134169  0.49066935     0.36100
C343        C  0.99492402  0.50097171  0.48204223    -0.26100
C344        C  0.98711923  0.47161641  0.49562419     0.02600
C345        C  0.97934594  0.47264790  0.51840435     0.27400
C346        C  0.97940562  0.50306178  0.52716369    -0.25200
N347        N  0.00298725  0.56099804  0.47618617    -0.82600
H348        H  0.00121900  0.50013580  0.46459065     0.13200
C349        C  0.98801951  0.44024416  0.48590701     0.02500
N350        N  0.97115486  0.44261718  0.53250320    -0.81100
H351        H  0.97328712  0.50360780  0.54466582     0.18000
C352        C  0.01328300  0.43164244  0.49354674    -0.26000
C353        C  0.01487131  0.40191309  0.48518789     0.36000
C354        C  0.99055500  0.38017096  0.46864789    -0.20000
C355        C  0.96562711  0.38926068  0.46073867    -0.25300
C356        C  0.96388495  0.41887669  0.46936718     0.27400
H357        H  0.03190259  0.44831739  0.50614863     0.13200
N358        N  0.04103689  0.39377387  0.49358230    -0.82500
H359        H  0.94676124  0.37262873  0.44824508     0.18000
N360        N  0.93722588  0.42689948  0.46179228    -0.81100
H361        H  0.05592835  0.41166973  0.50614502     0.33700
H362        H  0.05902456  0.39765297  0.48056853     0.38200
H363        H  0.92144886  0.40856951  0.44965733     0.33600
H364        H  0.92020825  0.42351676  0.47529725     0.30300
H365        H  0.96620350  0.44761117  0.54885176     0.33600
H366        H  0.94741316  0.42084980  0.52690549     0.30300
H367        H  0.97936012  0.56171238  0.47400859     0.38200
H368        H  0.01075201  0.55683970  0.46037903     0.33700
C369        C  0.23886778  0.85969174  0.48387952    -0.20100
C370        C  0.22168822  0.85580945  0.50476106     0.36100
C371        C  0.19091832  0.82329553  0.51012637    -0.26100
C372        C  0.17731018  0.79447472  0.49528907     0.02600
C373        C  0.19509961  0.79763789  0.47485649     0.27400
C374        C  0.22572121  0.83033426  0.46928644    -0.25200
N375        N  0.23558437  0.88473146  0.52050987    -0.82600
H376        H  0.17721434  0.82041207  0.52591902     0.13200
C377        C  0.14368343  0.76163340  0.50135508     0.02500
N378        N  0.18189815  0.76769612  0.45990719    -0.81100
H379        H  0.23904312  0.83305577  0.45337395     0.18000
C380        C  0.11217374  0.75406870  0.49059589    -0.26000
C381        C  0.07889581  0.72569084  0.49773065     0.36000
C382        C  0.07737003  0.70404802  0.51583288    -0.20000
C383        C  0.10933666  0.71117437  0.52604457    -0.25300
C384        C  0.14243440  0.73977664  0.51900525     0.27400
H385        H  0.11347156  0.77123255  0.47708873     0.13200
N386        N  0.04687776  0.71917053  0.48674396    -0.82500
H387        H  0.10853698  0.69463919  0.53978327     0.18000
N388        N  0.17480933  0.74707181  0.52983943    -0.81100
H389        H  0.05305387  0.73622787  0.47305866     0.33700
H390        H  0.03229927  0.72591548  0.49788994     0.38200
H391        H  0.16932528  0.72863337  0.54263156     0.33600
H392        H  0.19083393  0.74330175  0.51812073     0.30300
H393        H  0.19800753  0.77442643  0.44555285     0.33600
H394        H  0.18408654  0.74735126  0.46782936     0.30300
H395        H  0.26055582  0.88906123  0.52541609     0.38200
H396        H  0.21946877  0.87758198  0.53488196     0.33700
C397        C  0.40329248  0.37542756  0.51891606    -0.20100
C398        C  0.40790647  0.38188475  0.49565533     0.36100
C399        C  0.43809718  0.41289532  0.48747880    -0.26100
C400        C  0.46426664  0.43726170  0.50182636     0.02600
C401        C  0.45990598  0.43075909  0.52498196     0.27400
C402        C  0.42932313  0.40015704  0.53327570    -0.25200
N403        N  0.38166061  0.35753361  0.48036295    -0.82600
H404        H  0.44123919  0.41819197  0.46974727     0.13200
C405        C  0.49571570  0.46984763  0.49239775     0.02500
N406        N  0.48670374  0.45515265  0.53996774    -0.81100
H407        H  0.42602209  0.39540102  0.55105758     0.18000
C408        C  0.50261075  0.50363638  0.49971634    -0.26000
C409        C  0.53238427  0.53515070  0.49172825     0.36000
C410        C  0.55610208  0.53291553  0.47608906    -0.20000
C411        C  0.54844149  0.49910593  0.46811776    -0.25300
C412        C  0.51857941  0.46753784  0.47617090     0.27400
H413        H  0.48453388  0.50539704  0.51173882     0.13200
N414        N  0.53855307  0.56938599  0.49950189    -0.82500
H415        H  0.56648362  0.49719562  0.45614133     0.18000
N416        N  0.51182092  0.43314621  0.46830672    -0.81100
H417        H  0.51900327  0.56628440  0.51121198     0.33700
H418        H  0.53583359  0.58282294  0.48591284     0.38200
H419        H  0.53101946  0.43606756  0.45637080     0.33600
H420        H  0.51459273  0.41951973  0.48176250     0.30300
H421        H  0.47941805  0.44667198  0.55644579     0.33600
H422        H  0.51017530  0.45442425  0.53653300     0.30300
H423        H  0.38345531  0.33420583  0.48006586     0.38200
H424        H  0.38772063  0.36777832  0.46416632     0.33700
C425        C  0.65247005  0.86647603  0.52630869    -0.20100
C426        C  0.62171905  0.83255581  0.52960513     0.36100
C427        C  0.62208066  0.80171663  0.52214873    -0.26100
C428        C  0.65207600  0.80425446  0.51099867     0.02600
C429        C  0.68250016  0.83805550  0.50737762     0.27400
C430        C  0.68239688  0.86878834  0.51507180    -0.25200
N431        N  0.59015580  0.82948736  0.54017661    -0.82600
H432        H  0.59860376  0.77561303  0.52455227     0.13200
C433        C  0.65081010  0.77147623  0.50222950     0.02500
N434        N  0.71340883  0.84094486  0.49596032    -0.81100
H435        H  0.70607146  0.89467725  0.51247405     0.18000
C436        C  0.65255267  0.76758858  0.47916626    -0.26000
C437        C  0.65186278  0.73719859  0.46996811     0.36000
C438        C  0.64982683  0.71029644  0.48426175    -0.20000
C439        C  0.64810008  0.71431420  0.50740688    -0.25300
C440        C  0.64840033  0.74459774  0.51654556     0.27400
H441        H  0.65437971  0.78843066  0.46830011     0.13200
N442        N  0.65454515  0.73432937  0.44625702    -0.82500
H443        H  0.64654386  0.69374385  0.51840600     0.18000
N444        N  0.64669344  0.74840397  0.54024610    -0.81100
H445        H  0.65864844  0.75767333  0.43837495     0.33700
H446        H  0.62981388  0.71387594  0.44085905     0.38200
H447        H  0.64480951  0.72616536  0.54842758     0.33600
H448        H  0.67081315  0.77051298  0.54503444     0.30300
H449        H  0.73342024  0.86774482  0.49443549     0.33600
H450        H  0.72371888  0.82841902  0.50582787     0.30300
H451        H  0.58014061  0.84156687  0.52968956     0.38200
H452        H  0.57024552  0.80261525  0.54161533     0.33700
C453        C  0.72550742  0.59608465  0.48805744    -0.20100
C454        C  0.72959153  0.56706740  0.48047671     0.36100
C455        C  0.75745802  0.56268647  0.48881307    -0.26100
C456        C  0.78162776  0.58697950  0.50410042     0.02600
C457        C  0.77763401  0.61582733  0.51169477     0.27400
C458        C  0.74924564  0.61965231  0.50392509    -0.25200
N459        N  0.70628545  0.54275305  0.46395207    -0.82600
H460        H  0.76136509  0.54115066  0.48264760     0.13200
C461        C  0.81402933  0.58525271  0.50946883     0.02500
N462        N  0.80383090  0.64251630  0.52604641    -0.81100
H463        H  0.74658865  0.64212875  0.50966625     0.18000
C464        C  0.84237227  0.59931169  0.49400064    -0.26000
C465        C  0.87543456  0.60257956  0.49913582     0.36000
C466        C  0.88055851  0.59262122  0.52051150    -0.20000
C467        C  0.85127133  0.57598711  0.53540396    -0.25300
C468        C  0.81778052  0.57186083  0.52996038     0.27400
H469        H  0.83884952  0.60850416  0.47800632     0.13200
N470        N  0.90390380  0.61623596  0.48277388    -0.82500
H471        H  0.85478439  0.56722135  0.55153758     0.18000
N472        N  0.78757388  0.55364819  0.54488348    -0.81100
H473        H  0.89576030  0.62242861  0.46797756     0.33700
H474        H  0.90938992  0.59570205  0.47899418     0.38200
H475        H  0.79472310  0.54481341  0.55901781     0.33600
H476        H  0.77986271  0.57187263  0.55040427     0.30300
H477        H  0.79793451  0.66293812  0.52919301     0.33600
H478        H  0.80226532  0.63058660  0.54138854     0.30300
H479        H  0.71209167  0.55688694  0.44896625     0.38200
H480        H  0.71188568  0.52203884  0.46114504     0.33700
C481        C  0.21652196  0.97096144  0.29908841    -0.20100
C482        C  0.20075446  0.96981865  0.32021150     0.36100
C483        C  0.21678920  0.96742867  0.33973484    -0.26100
C484        C  0.24874293  0.96645232  0.33897737     0.02600
C485        C  0.26492527  0.96771654  0.31822981     0.27400
C486        C  0.24869834  0.96973829  0.29857631    -0.25200
N487        N  0.16822439  0.97105628  0.32197344    -0.82600
H488        H  0.20419617  0.96646834  0.35567923     0.13200
C489        C  0.26555908  0.96545715  0.36013212     0.02500
N490        N  0.29812755  0.96745496  0.31723053    -0.81100
H491        H  0.26197648  0.97057911  0.28311351     0.18000
C492        C  0.27061108  0.93636525  0.36483309    -0.26000
C493        C  0.28500978  0.93409054  0.38522721     0.36000
C494        C  0.29484834  0.96174228  0.40102011    -0.20000
C495        C  0.29044116  0.99107764  0.39602420    -0.25300
C496        C  0.27603666  0.99328880  0.37577335     0.27400
H497        H  0.26238575  0.91495690  0.35279127     0.13200
N498        N  0.28848248  0.90336902  0.39020207    -0.82500
H499        H  0.29812135  0.01239182  0.40808644     0.18000
N500        N  0.27185342  0.02366058  0.37102704    -0.81100
H501        H  0.28018314  0.88562249  0.37676503     0.33700
H502        H  0.27098803  0.88974717  0.40345460     0.38200
H503        H  0.28058260  0.04164791  0.38432951     0.33600
H504        H  0.28854360  0.03714716  0.35743110     0.30300
H505        H  0.30663788  0.96837135  0.30073271     0.33600
H506        H  0.31750607  0.99087881  0.32483188     0.30300
H507        H  0.17302424  0.99322251  0.33165599     0.38200
H508        H  0.14919916  0.94801701  0.33035129     0.33700
C509        C  0.99004360  0.24612231  0.38471403    -0.20100
C510        C  0.99273495  0.21476309  0.38245455     0.36100
C511        C  0.99496870  0.20232945  0.36111629    -0.26100
C512        C  0.99556609  0.22080934  0.34184304     0.02600
C513        C  0.99295357  0.25216148  0.34404864     0.27400
C514        C  0.99009380  0.26434584  0.36540907    -0.25200
N515        N  0.99363222  0.19574489  0.40177409    -0.82600
H516        H  0.99624666  0.17791870  0.35950693     0.13200
C517        C  0.99790613  0.20629549  0.31957377     0.02500
N518        N  0.99349899  0.27169984  0.32461642    -0.81100
H519        H  0.98804311  0.28833552  0.36697859     0.18000
C520        C  0.97246459  0.20060691  0.30343581    -0.26000
C521        C  0.97305336  0.18608163  0.28257717     0.36000
C522        C  0.99907070  0.17627389  0.27768539    -0.20000
C523        C  0.02426442  0.18138190  0.29378739    -0.25300
C524        C  0.02434258  0.19679466  0.31456457     0.27400
H525        H  0.95156315  0.20693059  0.30715271     0.13200
N526        N  0.94648473  0.18035384  0.26660517    -0.82500
H527        H  0.04442102  0.17404778  0.28992955     0.18000
N528        N  0.05135578  0.20315652  0.33047705    -0.81100
H529        H  0.92134019  0.16349401  0.27376776     0.33700
H530        H  0.94828223  0.20500567  0.26330404     0.38200
H531        H  0.06860604  0.19454393  0.32426882     0.33600
H532        H  0.06679564  0.23083297  0.33269593     0.30300
H533        H  0.99095666  0.29384432  0.32905905     0.33600
H534        H  0.01858113  0.28167210  0.31688563     0.30300
H535        H  0.01749447  0.21234325  0.40996913     0.38200
H536        H  0.99464283  0.17280597  0.39718102     0.33700
C537        C  0.15939514  0.03162392  0.25764109    -0.20100
C538        C  0.14354960  0.03912986  0.27618432     0.36100
C539        C  0.12503088  0.05789376  0.27321618    -0.26100
C540        C  0.12123633  0.06879209  0.25200741     0.02600
C541        C  0.13726081  0.06174489  0.23347489     0.27400
C542        C  0.15649488  0.04365163  0.23652972    -0.25200
N543        N  0.14445835  0.02620531  0.29790189    -0.82600
H544        H  0.11260045  0.06306849  0.28750482     0.13200
C545        C  0.09898809  0.08599094  0.24926934     0.02500
N546        N  0.13288476  0.07191330  0.21153503    -0.81100
H547        H  0.16830384  0.03791312  0.22219857     0.18000
C548        C  0.11461422  0.12102722  0.24089188    -0.26000
C549        C  0.09409311  0.13777336  0.23760747     0.36000
C550        C  0.05703594  0.11883315  0.24251734    -0.20000
C551        C  0.04168813  0.08395670  0.25124259    -0.25300
C552        C  0.06215541  0.06731374  0.25458538     0.27400
H553        H  0.14299881  0.13538600  0.23702728     0.13200
N554        N  0.11083270  0.17401486  0.22961631    -0.82500
H555        H  0.01331883  0.06904996  0.25492762     0.18000
N556        N  0.04555212  0.03125862  0.26297021    -0.81100
H557        H  0.13820455  0.18412529  0.22687125     0.33700
H558        H  0.10838540  0.18959678  0.24218610     0.38200
H559        H  0.01829533  0.02132603  0.26613372     0.33600
H560        H  0.04734869  0.01521217  0.25046347     0.30300
H561        H  0.14629617  0.06479845  0.19969410     0.33600
H562        H  0.10571796  0.05713376  0.20784061     0.30300
H563        H  0.11815662  0.00991137  0.30352721     0.38200
H564        H  0.15669395  0.04820717  0.30857641     0.33700
C565        C  0.79800811  0.75883191  0.30054029    -0.20100
C566        C  0.80536619  0.77537120  0.32182817     0.36100
C567        C  0.78640212  0.75531865  0.34070008    -0.26100
C568        C  0.76181831  0.71863644  0.33921992     0.02600
C569        C  0.75692528  0.70127319  0.31863580     0.27400
C570        C  0.77498885  0.72136214  0.29961268    -0.25200
N571        N  0.83185093  0.81250914  0.32430887    -0.82600
H572        H  0.79090624  0.76834468  0.35675315     0.13200
C573        C  0.74204724  0.69856926  0.35952103     0.02500
N574        N  0.73393826  0.66313481  0.31721578    -0.81100
H575        H  0.77151285  0.70695465  0.28428720     0.18000
C576        C  0.70459151  0.68166062  0.36031843    -0.26000
C577        C  0.68505192  0.66348058  0.37958241     0.36000
C578        C  0.70354536  0.66293664  0.39864935    -0.20000
C579        C  0.74105617  0.67921267  0.39750152    -0.25300
C580        C  0.76039529  0.69661213  0.37810011     0.27400
H581        H  0.69060199  0.68298619  0.34588363     0.13200
N582        N  0.64671020  0.64637501  0.37990568    -0.82500
H583        H  0.75549567  0.67848704  0.41186315     0.18000
N584        N  0.79862406  0.71229475  0.37713247    -0.81100
H585        H  0.63755192  0.65068936  0.36489859     0.33700
H586        H  0.63677662  0.61877886  0.38097847     0.38200
H587        H  0.80811173  0.70857835  0.39219765     0.33600
H588        H  0.80468884  0.69848516  0.36504059     0.30300
H589        H  0.73305451  0.65431251  0.30086962     0.33600
H590        H  0.74523548  0.65116588  0.32671048     0.30300
H591        H  0.83302615  0.82065063  0.34084097     0.38200
H592        H  0.85678395  0.81519558  0.32044767     0.33700
C593        C  0.91159639  0.82839611  0.25427650    -0.20100
C594        C  0.93303363  0.86411837  0.24674078     0.36100
C595        C  0.97027497  0.87926981  0.24489334    -0.26100
C596        C  0.98698894  0.85996755  0.25096180     0.02600
C597        C  0.96603112  0.82426643  0.25819661     0.27400
C598        C  0.92856389  0.80872516  0.25960242    -0.25200
N599        N  0.91766348  0.88611095  0.24225752    -0.82600
H600        H  0.98643849  0.90698969  0.23976417     0.13200
C601        C  0.02648970  0.87904464  0.25240330     0.02500
N602        N  0.98302873  0.80434537  0.26464439    -0.81100
H603        H  0.91260463  0.78128787  0.26524244     0.18000
C604        C  0.04175383  0.89182997  0.27317532    -0.26000
C605        C  0.07886648  0.91251129  0.27539403     0.36000
C606        C  0.10161020  0.91951623  0.25662024    -0.20000
C607        C  0.08624454  0.90681427  0.23571625    -0.25300
C608        C  0.04879337  0.88676687  0.23340938     0.27400
H609        H  0.02461116  0.88682221  0.28768652     0.13200
N610        N  0.09313101  0.92796664  0.29656694    -0.82500
H611        H  0.10347313  0.91268956  0.22117018     0.18000
N612        N  0.03328931  0.87469873  0.21190726    -0.81100
H613        H  0.08497231  0.90718064  0.30811406     0.33700
H614        H  0.08198696  0.94367678  0.30147147     0.38200
H615        H  0.05330064  0.88292061  0.19961343     0.33600
H616        H  0.01980536  0.84671977  0.21206265     0.30300
H617        H  0.96394715  0.77857506  0.26984203     0.33600
H618        H  0.99573282  0.80132261  0.25050291     0.30300
H619        H  0.92940051  0.90835951  0.25276221     0.38200
H620        H  0.92413581  0.89521375  0.22583776     0.33700
C621        C  0.84318498  0.87547196  0.25868898    -0.20100
C622        C  0.83972438  0.89117158  0.23896590     0.36100
C623        C  0.85788962  0.92859830  0.23697641    -0.26100
C624        C  0.87916121  0.95073156  0.25420717     0.02600
C625        C  0.88090190  0.93494467  0.27431436     0.27400
C626        C  0.86264225  0.89768225  0.27641709    -0.25200
N627        N  0.81861856  0.87017245  0.22058898    -0.82600
H628        H  0.85617838  0.94054698  0.22157238     0.13200
C629        C  0.90191527  0.98974060  0.25000356     0.02500
N630        N  0.90306823  0.95586623  0.29223643    -0.81100
H631        H  0.86591536  0.88597434  0.29147237     0.18000
C632        C  0.89712114  0.01451767  0.26279922    -0.26000
C633        C  0.91896343  0.05149875  0.25923483     0.36000
C634        C  0.94483855  0.06381223  0.24207265    -0.20000
C635        C  0.94941532  0.03919356  0.22909711    -0.25300
C636        C  0.92869174  0.00227240  0.23317145     0.27400
H637        H  0.87638763  0.00516655  0.27556900     0.13200
N638        N  0.91466609  0.07651900  0.27288582    -0.82500
H639        H  0.97000912  0.04896173  0.21620305     0.18000
N640        N  0.93504556  0.97743967  0.22054810    -0.81100
H641        H  0.91864500  0.07214116  0.28941536     0.33700
H642        H  0.88832253  0.07111115  0.27151878     0.38200
H643        H  0.95550090  0.99097922  0.20874215     0.33600
H644        H  0.94426085  0.96527236  0.23155166     0.30300
H645        H  0.89389571  0.97271730  0.29821145     0.33600
H646        H  0.92923315  0.97152017  0.28616145     0.30300
H647        H  0.80463047  0.84297813  0.22451286     0.38200
H648        H  0.79906468  0.87726763  0.21787738     0.33700
C649        C  0.29221911  0.98603424  0.10751622    -0.20100
C650        C  0.25640730  0.97899359  0.10891428     0.36100
C651        C  0.24072131  0.97760895  0.12991482    -0.26100
C652        C  0.25996390  0.98346487  0.14950815     0.02600
C653        C  0.29570370  0.99098463  0.14816628     0.27400
C654        C  0.31131295  0.99184326  0.12725616    -0.25200
N655        N  0.23572327  0.97250836  0.08917447    -0.82600
H656        H  0.21321707  0.97170996  0.13106174     0.13200
C657        C  0.24209806  0.98055007  0.17142011     0.02500
N658        N  0.31605507  0.99793819  0.16809008    -0.81100
H659        H  0.33874107  0.99749203  0.12638391     0.18000
C660        C  0.23635051  0.95278777  0.18593470    -0.26000
C661        C  0.22037609  0.94942254  0.20703521     0.36000
C662        C  0.21041100  0.97472239  0.21394593    -0.20000
C663        C  0.21516160  0.00187469  0.19916129    -0.25300
C664        C  0.23105523  0.00513999  0.17796191     0.27400
H665        H  0.24437134  0.93364125  0.18071862     0.13200
N666        N  0.21410924  0.92033298  0.22148338    -0.82500
H667        H  0.20776566  0.02139200  0.20448402     0.18000
N668        N  0.23678379  0.03374726  0.16325354    -0.81100
H669        H  0.22294927  0.90411285  0.21394295     0.33700
H670        H  0.18646678  0.90440096  0.22379756     0.38200
H671        H  0.22714491  0.04949023  0.17052950     0.33600
H672        H  0.26437512  0.05030497  0.16111647     0.30300
H673        H  0.34188207  0.00291300  0.16429795     0.33600
H674        H  0.31880987  0.02144438  0.17511530     0.30300
H675        H  0.24625075  0.99678179  0.08058010     0.38200
H676        H  0.20930421  0.96519441  0.09329707     0.33700
C677        C  0.37870168  0.09557793  0.02761191    -0.20100
C678        C  0.39303308  0.12510337  0.04233430     0.36100
C679        C  0.39961528  0.15876373  0.03462429    -0.26100
C680        C  0.39290973  0.16353798  0.01248110     0.02600
C681        C  0.38122414  0.13470895  0.99747877     0.27400
C682        C  0.37437614  0.10119313  0.00518266    -0.25200
N683        N  0.39931073  0.12059913  0.06517557    -0.82600
H684        H  0.40897702  0.18111589  0.04603903     0.13200
C685        C  0.39410809  0.19720655  0.00552494     0.02500
N686        N  0.37480954  0.13916607  0.97464378    -0.81100
H687        H  0.36432286  0.07891695  0.99367870     0.18000
C688        C  0.41673774  0.21747717  0.98786990    -0.26000
C689        C  0.41396916  0.24573082  0.97825606     0.36000
C690        C  0.38772143  0.25370332  0.98643350    -0.20000
C691        C  0.36655947  0.23460384  0.00495157    -0.25300
C692        C  0.36934686  0.20641034  0.01449441     0.27400
H693        H  0.43581156  0.21036201  0.98109020     0.13200
N694        N  0.43684907  0.26533359  0.95977676    -0.82500
H695        H  0.34672409  0.24077736  0.01155635     0.18000
N696        N  0.34606240  0.18610167  0.03267777    -0.81100
H697        H  0.45347922  0.25503030  0.95526266     0.33700
H698        H  0.45367111  0.29154689  0.96514485     0.38200
H699        H  0.32953622  0.19641051  0.03742865     0.33600
H700        H  0.32924356  0.16007500  0.02699669     0.30300
H701        H  0.36665939  0.11548262  0.96572912     0.33600
H702        H  0.35350650  0.14424372  0.97442811     0.30300
H703        H  0.42019692  0.11489648  0.06533616     0.38200
H704        H  0.40830499  0.14457319  0.07391528     0.33700
C705        C  0.11654634  0.32990284  0.01106213    -0.20100
C706        C  0.11659382  0.30025226  0.00079893     0.36100
C707        C  0.14908255  0.30327204  0.99366018    -0.26100
C708        C  0.18148399  0.33464531  0.99730277     0.02600
C709        C  0.18181026  0.36373794  0.00832192     0.27400
C710        C  0.14920946  0.36124630  0.01492211    -0.25200
N711        N  0.08387066  0.26684912  0.99823787    -0.82600
H712        H  0.14931058  0.28076133  0.98564293     0.13200
C713        C  0.21489969  0.33556230  0.99041735     0.02500
N714        N  0.21521041  0.39542749  0.01289219    -0.81100
H715        H  0.14931540  0.38374372  0.02317853     0.18000
C716        C  0.23199794  0.35242622  0.97045761    -0.26000
C717        C  0.26219885  0.35109873  0.96253046     0.36000
C718        C  0.27563304  0.33279184  0.97510528    -0.20000
C719        C  0.25853192  0.31644665  0.99529619    -0.25300
C720        C  0.22832125  0.31768178  0.00306481     0.27400
H721        H  0.22115766  0.36586084  0.96079663     0.13200
N722        N  0.27873960  0.36774973  0.94167392    -0.82500
H723        H  0.26873175  0.30258181  0.00509942     0.18000
N724        N  0.21083861  0.30048702  0.02361686    -0.81100
H725        H  0.26613261  0.38084747  0.93495828     0.33700
H726        H  0.27464877  0.34737671  0.93050754     0.38200
H727        H  0.22387468  0.28822752  0.03087423     0.33600
H728        H  0.21321352  0.32041192  0.03464354     0.30300
H729        H  0.21079723  0.41437457  0.02113877     0.33600
H730        H  0.22914021  0.38829352  0.02388433     0.30300
H731        H  0.07426975  0.25662573  0.01417314     0.38200
H732        H  0.08864485  0.24804605  0.99010702     0.33700
C733        C  0.01898284  0.27314347  0.09432813    -0.20100
C734        C  0.02588428  0.24418721  0.09504401     0.36100
C735        C  0.02191165  0.22633735  0.11524817    -0.26100
C736        C  0.01256763  0.23740909  0.13490118     0.02600
C737        C  0.00719716  0.26709185  0.13457315     0.27400
C738        C  0.01021252  0.28455938  0.11424144    -0.25200
N739        N  0.03694047  0.23288135  0.07534803    -0.82600
H740        H  0.02650860  0.20379660  0.11577486     0.13200
C741        C  0.00858509  0.21730255  0.15563120     0.02500
N742        N  0.99862439  0.27923059  0.15486070    -0.81100
H743        H  0.00534069  0.30691489  0.11392958     0.18000
C744        C  0.03653476  0.23070182  0.17075208    -0.26000
C745        C  0.03455768  0.21117773  0.18984728     0.36000
C746        C  0.00419492  0.17709683  0.19401157    -0.20000
C747        C  0.97581994  0.16430602  0.17880223    -0.25300
C748        C  0.97779368  0.18404714  0.15974698     0.27400
H749        H  0.06020510  0.25641018  0.16762491     0.13200
N750        N  0.06351602  0.22628123  0.20513542    -0.82500
H751        H  0.95145452  0.13942874  0.18163993     0.18000
N752        N  0.94861533  0.17050492  0.14449042    -0.81100
H753        H  0.06677300  0.25079037  0.21066637     0.33700
H754        H  0.08682612  0.23125105  0.19654217     0.38200
H755        H  0.92789072  0.14552237  0.14973494     0.33600
H756        H  0.93831491  0.18793340  0.14484701     0.30300
H757        H  0.99586915  0.30161461  0.15184122     0.33600
H758        H  0.97370124  0.25892555  0.16053529     0.30300
H759        H  0.06248186  0.25348649  0.07086616     0.38200
H760        H  0.03956126  0.21050014  0.07865421     0.33700
C761        C  0.43391105  0.98847689  0.02755466    -0.20100
C762        C  0.45545148  0.01100293  0.00998414     0.36100
C763        C  0.48586469  0.00957300  0.00281221    -0.26100
C764        C  0.49535200  0.98621965  0.01274769     0.02600
C765        C  0.47427173  0.96414239  0.03054024     0.27400
C766        C  0.44388768  0.96571505  0.03789047    -0.25200
N767        N  0.44663026  0.03554525  0.99960961    -0.82600
H768        H  0.50244438  0.02690226  0.98940777     0.13200
C769        C  0.52743823  0.98530735  0.00415449     0.02500
N770        N  0.48345215  0.93979985  0.04077480    -0.81100
H771        H  0.42741322  0.94843488  0.05133649     0.18000
C772        C  0.55598469  0.99393410  0.01835724    -0.26000
C773        C  0.58709513  0.99412378  0.01069547     0.36000
C774        C  0.59010078  0.98631471  0.98803179    -0.20000
C775        C  0.56137084  0.97774447  0.97387626    -0.25300
C776        C  0.52998643  0.97677103  0.98174984     0.27400
H777        H  0.55394422  0.00058875  0.03554004     0.13200
N778        N  0.61554726  0.00245251  0.02589932    -0.82500
H779        H  0.56320635  0.97139404  0.95660894     0.18000
N780        N  0.50049229  0.96685071  0.96713776    -0.81100
H781        H  0.60985530  0.00957769  0.04147204     0.33700
H782        H  0.61652894  0.97896783  0.02842712     0.38200
H783        H  0.50656767  0.96138434  0.95118347     0.33600
H784        H  0.47898408  0.94298428  0.97317533     0.30300
H785        H  0.46525925  0.92546584  0.05358626     0.33600
H786        H  0.48098837  0.92106755  0.02875643     0.30300
H787        H  0.44915913  0.05436617  0.01158002     0.38200
H788        H  0.46493442  0.04980456  0.98682590     0.33700
C789        C  0.76237625  0.08522148  0.98306183    -0.20100
C790        C  0.77969723  0.08971485  0.00362520     0.36100
C791        C  0.80839994  0.12339548  0.00916498    -0.26100
C792        C  0.82077420  0.15232280  0.99446572     0.02600
C793        C  0.80316808  0.14834546  0.97428020     0.27400
C794        C  0.77390880  0.11486186  0.96883106    -0.25200
N795        N  0.76849806  0.06019856  0.01877420    -0.82600
H796        H  0.82235444  0.12673649  0.02459153     0.13200
C797        C  0.85466774  0.18518297  0.99943668     0.02500
N798        N  0.81557954  0.17818487  0.95928201    -0.81100
H799        H  0.76069632  0.11169300  0.95313742     0.18000
C800        C  0.88522009  0.19226025  0.98701525    -0.26000
C801        C  0.91895380  0.22073583  0.99254348     0.36000
C802        C  0.92215176  0.24241970  0.01117624    -0.20000
C803        C  0.89114081  0.23588231  0.02313393    -0.25300
C804        C  0.85738435  0.20744392  0.01741244     0.27400
H805        H  0.88277498  0.17483847  0.97324316     0.13200
N806        N  0.94987758  0.22700728  0.97957261    -0.82500
H807        H  0.89327552  0.25253715  0.03726970     0.18000
N808        N  0.82593473  0.20064228  0.02994859    -0.81100
H809        H  0.94295314  0.20755459  0.96720805     0.33700
H810        H  0.95925918  0.25140573  0.97128762     0.38200
H811        H  0.83251110  0.21937337  0.04273629     0.33600
H812        H  0.80924481  0.20440254  0.01924209     0.30300
H813        H  0.79988925  0.17081387  0.94505613     0.33600
H814        H  0.81204822  0.19785759  0.96729256     0.30300
H815        H  0.77650429  0.04292692  0.01183420     0.38200
H816        H  0.78196555  0.06892599  0.03381927     0.33700
C817        C  0.02358705  0.56692281  0.97080660    -0.20100
C818        C  0.02911881  0.54449248  0.95594249     0.36100
C819        C  0.02970574  0.51430632  0.96428922    -0.26100
C820        C  0.02512113  0.50624856  0.98712648     0.02600
C821        C  0.01978780  0.52868975  0.00194669     0.27400
C822        C  0.01929222  0.55881687  0.99366851    -0.25200
N823        N  0.03442368  0.55248530  0.93254983    -0.82600
H824        H  0.03402346  0.49706638  0.95297881     0.13200
C825        C  0.02526470  0.47387090  0.99534809     0.02500
N826        N  0.01433972  0.52045143  0.02532220    -0.81100
H827        H  0.01490275  0.57576375  0.00518610     0.18000
C828        C  0.05044318  0.47745351  0.01115570    -0.26000
C829        C  0.05069051  0.44724710  0.01972750     0.36000
C830        C  0.02527076  0.41286569  0.01225589    -0.20000
C831        C  0.00048680  0.40939428  0.99621143    -0.25300
C832        C  0.99987534  0.43947593  0.98791947     0.27400
H833        H  0.07005898  0.50396214  0.01671456     0.13200
N834        N  0.07702952  0.45140988  0.03558706    -0.82500
H835        H  0.98095249  0.38295903  0.99048472     0.18000
N836        N  0.97318000  0.43523028  0.97230522    -0.81100
H837        H  0.09365540  0.47845213  0.03938160     0.33700
H838        H  0.09330332  0.44261898  0.02802940     0.38200
H839        H  0.95653253  0.40819078  0.96851594     0.33600
H840        H  0.95700476  0.44396555  0.98006521     0.30300
H841        H  0.01095109  0.53970881  0.03399893     0.33600
H842        H  0.99043894  0.49619051  0.02724456     0.30300
H843        H  0.05856019  0.57648599  0.93054127     0.38200
H844        H  0.03744660  0.53294696  0.92394177     0.33700
C845        C  0.26096192  0.89809372  0.01825196    -0.20100
C846        C  0.23428764  0.89922404  0.00546665     0.36100
C847        C  0.20630864  0.86732911  0.99691225    -0.26100
C848        C  0.20386672  0.83427770  0.00114893     0.02600
C849        C  0.23016672  0.83282331  0.01390001     0.27400
C850        C  0.25861229  0.86479998  0.02224030    -0.25200
N851        N  0.23509498  0.93252191  0.00157955    -0.82600
H852        H  0.18570387  0.86806588  0.98725827     0.13200
C853        C  0.17226729  0.80141718  0.99307394     0.02500
N854        N  0.22756944  0.79890306  0.01854755    -0.81100
H855        H  0.27880976  0.86365138  0.03208355     0.18000
C856        C  0.17574051  0.78277032  0.97488479    -0.26000
C857        C  0.14552588  0.75333249  0.96564589     0.36000
C858        C  0.11136336  0.74172980  0.97538408    -0.20000
C859        C  0.10829150  0.76037749  0.99380342    -0.25300
C860        C  0.13829853  0.79019057  0.00261667     0.27400
H861        H  0.20195865  0.79200846  0.96744380     0.13200
N862        N  0.14943295  0.73590206  0.94619181    -0.82500
H863        H  0.08227322  0.75184618  0.00133611     0.18000
N864        N  0.13445011  0.80950695  0.02106860    -0.81100
H865        H  0.17635835  0.74732479  0.94146658     0.33700
H866        H  0.13677032  0.74085675  0.93313853     0.38200
H867        H  0.10761647  0.79814808  0.02599398     0.33600
H868        H  0.14794577  0.80674998  0.03450924     0.30300
H869        H  0.24909519  0.80245474  0.02811449     0.33600
H870        H  0.20449947  0.78398107  0.02827697     0.30300
H871        H  0.23042730  0.94130183  0.01687439     0.38200
H872        H  0.21419893  0.92870685  0.99128677     0.33700
C873        C  0.45159280  0.42064655  0.97574426    -0.20100
C874        C  0.48676347  0.43321811  0.96747346     0.36100
C875        C  0.51542689  0.46322693  0.97743728    -0.26100
C876        C  0.50960395  0.48061803  0.99545557     0.02600
C877        C  0.47466067  0.46858760  0.00349674     0.27400
C878        C  0.44600354  0.43883814  0.99351650    -0.24600
N879        N  0.49343890  0.41520160  0.94939214    -0.82600
H880        H  0.54250051  0.47288215  0.97134933     0.13200
C881        C  0.54033964  0.51165395  0.00574777     0.02500
N882        N  0.46852598  0.48656795  0.02184509    -0.81100
H883        H  0.41914740  0.42949489  0.99990301     0.18000
C884        C  0.54843277  0.54621464  0.99961412    -0.26000
C885        C  0.57765336  0.57644561  0.00882982     0.36000
C886        C  0.59893008  0.57178184  0.02456960    -0.20000
C887        C  0.59023280  0.53714388  0.03109468    -0.25300
C888        C  0.56116145  0.50692198  0.02170924     0.27400
H889        H  0.53197902  0.54951595  0.98750412     0.13200
N890        N  0.58570460  0.61180797  0.00236746    -0.82500
H891        H  0.60676846  0.53367740  0.04305810     0.18000
N892        N  0.55295090  0.47147955  0.02804182    -0.81100
H893        H  0.56753106  0.61050629  0.99060774     0.33700
H894        H  0.58221868  0.62423886  0.01643491     0.38200
H895        H  0.57118402  0.47265415  0.03971407     0.33600
H896        H  0.52788595  0.45917276  0.03598457     0.30300
H897        H  0.44120996  0.47461340  0.02562064     0.33600
H898        H  0.48056927  0.48309623  0.03581930     0.30300
H899        H  0.48731125  0.38986433  0.95509643     0.38200
H900        H  0.52060240  0.42848990  0.94502000     0.33700
C901        C  0.66641659  0.89105993  0.98989638    -0.20100
C902        C  0.64128059  0.85685909  0.98175587     0.36100
C903        C  0.64282567  0.82664351  0.98888389    -0.26100
C904        C  0.66838719  0.83000612  0.00418618     0.02600
C905        C  0.69209076  0.86360810  0.01324194     0.27400
C906        C  0.69093654  0.89382533  0.00598500    -0.25200
N907        N  0.61484162  0.85289835  0.96603962    -0.82600
H908        H  0.62437268  0.80042392  0.98232162     0.13200
C909        C  0.67065228  0.79825408  0.01047545     0.02500
N910        N  0.71766601  0.86688536  0.02945064    -0.81100
H911        H  0.70992359  0.91980011  0.01259616     0.18000
C912        C  0.69788865  0.79348359  0.00109335    -0.26000
C913        C  0.70211266  0.76451736  0.00738912     0.36000
C914        C  0.67884414  0.74028523  0.02382414    -0.20000
C915        C  0.65122485  0.74503588  0.03288900    -0.25300
C916        C  0.64694215  0.77386205  0.02636451     0.27400
H917        H  0.71593854  0.81255562  0.98883946     0.13200
N918        N  0.73017120  0.76008500  0.99734167    -0.82500
H919        H  0.63318254  0.72650977  0.04535250     0.18000
N920        N  0.61894265  0.77880065  0.03596110    -0.81100
H921        H  0.74581711  0.78126659  0.98648806     0.33700
H922        H  0.71805901  0.73703079  0.98752598     0.38200
H923        H  0.60359469  0.75832745  0.04731944     0.33600
H924        H  0.63098774  0.80263657  0.04503897     0.30300
H925        H  0.73342512  0.89356079  0.03433574     0.33600
H926        H  0.70342322  0.85266198  0.04362775     0.30300
H927        H  0.59746307  0.85970542  0.97421824     0.38200
H928        H  0.59933073  0.82613641  0.96125327     0.33700
C929        C  0.91850282  0.62964213  0.97858943    -0.20100
C930        C  0.88630979  0.61112416  0.96669528     0.36100
C931        C  0.85497939  0.60899592  0.97566396    -0.26100
C932        C  0.85513313  0.62434668  0.99633091     0.02600
C933        C  0.88671943  0.64124023  0.00868071     0.27400
C934        C  0.91800106  0.64356143  0.99973110    -0.25200
N935        N  0.88565659  0.59562784  0.94533604    -0.82600
H936        H  0.83043237  0.59590593  0.96635951     0.13200
C937        C  0.82294006  0.62521967  0.00415844     0.02500
N938        N  0.88715889  0.65702758  0.02992418    -0.81100
H939        H  0.94244403  0.65741132  0.00907621     0.18000
C940        C  0.80578954  0.60789560  0.02405878    -0.26000
C941        C  0.77722278  0.61117903  0.03301241     0.36000
C942        C  0.76617387  0.63272479  0.02184241    -0.20000
C943        C  0.78269939  0.64893471  0.00154325    -0.25300
C944        C  0.81102063  0.64553567  0.99262509     0.27400
H945        H  0.81518379  0.59228454  0.03276985     0.13200
N946        N  0.76047806  0.59383819  0.05367414    -0.82500
H947        H  0.77406467  0.66514253  0.99278898     0.18000
N948        N  0.82845679  0.66352975  0.97224016    -0.81100
H949        H  0.77315388  0.58067301  0.06018644     0.33700
H950        H  0.73437266  0.57391328  0.05017028     0.38200
H951        H  0.81617039  0.67709086  0.96574469     0.33600
H952        H  0.85461344  0.68302621  0.97601677     0.30300
H953        H  0.91247558  0.66819602  0.03694473     0.33600
H954        H  0.88228588  0.67816717  0.02721701     0.30300
H955        H  0.89041487  0.57439079  0.94791776     0.38200
H956        H  0.86021614  0.58444734  0.93847927     0.33700
C957        C  0.73231818  0.69977027  0.10908421    -0.20100
C958        C  0.75581632  0.73697289  0.11161301     0.36100
C959        C  0.77049162  0.75055235  0.13253170    -0.26100
C960        C  0.76216178  0.72781044  0.15091142     0.02600
C961        C  0.73922137  0.69065676  0.14835731     0.27400
C962        C  0.72414820  0.67703239  0.12750776    -0.25200
N963        N  0.76420301  0.76092067  0.09306565    -0.82600
H964        H  0.78798379  0.77909258  0.13465693     0.13200
C965        C  0.77637387  0.74339395  0.17299823     0.02500
N966        N  0.73167557  0.66697090  0.16693229    -0.81100
H967        H  0.70658091  0.64848310  0.12551217     0.18000
C968        C  0.75235408  0.74067455  0.18987909    -0.26000
C969        C  0.76437502  0.75454654  0.21117691     0.36000
C970        C  0.80125292  0.77082502  0.21580645    -0.20000
C971        C  0.82541501  0.77471716  0.19864912    -0.25300
C972        C  0.81330614  0.76101475  0.17725852     0.27400
H973        H  0.72408778  0.72783144  0.18632372     0.13200
N974        N  0.73932659  0.75254559  0.22800543    -0.82500
H975        H  0.85367994  0.78741215  0.20214642     0.18000
N976        N  0.83820438  0.76425665  0.15997727    -0.81100
H977        H  0.71333436  0.73974291  0.22189090     0.33700
H978        H  0.74569356  0.77873958  0.23191500     0.38200
H979        H  0.86436416  0.77799361  0.16579318     0.33600
H980        H  0.83287437  0.73842673  0.15590193     0.30300
H981        H  0.71442290  0.64043900  0.16229780     0.33600
H982        H  0.75569624  0.66845085  0.17137356     0.30300
H983        H  0.74062987  0.76039569  0.08860422     0.38200
H984        H  0.78216521  0.78727033  0.09768689     0.33700
C985        C  0.20347930  0.17944618  0.71648301    -0.20100
C986        C  0.23607528  0.18441890  0.70769305     0.36100
C987        C  0.24762344  0.19911229  0.68638179    -0.26100
C988        C  0.22752251  0.20975450  0.67368251     0.02600
C989        C  0.19475553  0.20489830  0.68248584     0.27400
C990        C  0.18281626  0.18930332  0.70374055    -0.25200
N991        N  0.25753124  0.17446838  0.72041870    -0.82600
H992        H  0.27254910  0.20230121  0.67971161     0.13200
C993        C  0.24118825  0.22548464  0.65116506     0.02500
N994        N  0.17423155  0.21653276  0.67003742    -0.81100
H995        H  0.15798951  0.18594816  0.71069937     0.18000
C996        C  0.22054216  0.20874884  0.63244570    -0.26000
C997        C  0.23344300  0.22134486  0.61077690     0.36000
C998        C  0.26811419  0.25144600  0.60768507    -0.20000
C999        C  0.28847027  0.26844071  0.62653906    -0.25300
C1000       C  0.27538663  0.25586948  0.64817880     0.27400
H1001       H  0.19441414  0.18526565  0.63475540     0.13200
N1002       N  0.21159535  0.20310967  0.59200197    -0.82500
H1003       H  0.31490581  0.29152372  0.62441306     0.18000
N1004       N  0.29677718  0.27373934  0.66717693    -0.81100
H1005       H  0.18785039  0.18052146  0.59714151     0.33700
H1006       H  0.20418230  0.22040691  0.58474969     0.38200
H1007       H  0.32134603  0.29543914  0.66218947     0.33600
H1008       H  0.28340173  0.28427615  0.67641375     0.30300
H1009       H  0.15096182  0.21118208  0.67886992     0.33600
H1010       H  0.18949936  0.24433496  0.66839273     0.30300
H1011       H  0.26150684  0.15612479  0.71109359     0.38200
H1012       H  0.28245738  0.19732158  0.72263718     0.33700
C1013       C  0.32689563  0.28314780  0.89256447    -0.20100
C1014       C  0.31986624  0.30222915  0.87621638     0.36100
C1015       C  0.30091627  0.28419178  0.85707782    -0.26100
C1016       C  0.28862183  0.24757388  0.85402882     0.02600
C1017       C  0.29612534  0.22869015  0.87008563     0.27400
C1018       C  0.31547848  0.24673140  0.88902621    -0.25200
N1019       N  0.33019431  0.33919259  0.87956472    -0.82600
H1020       H  0.29489409  0.29850048  0.84469301     0.13200
C1021       C  0.26576723  0.22862469  0.83477662     0.02500
N1022       N  0.28288616  0.19095002  0.86747974    -0.81100
H1023       H  0.32060665  0.23188636  0.90150214     0.18000
C1024       C  0.27745242  0.21267389  0.81886082    -0.26000
C1025       C  0.25567242  0.19316213  0.80106096     0.36000
C1026       C  0.22089996  0.18855608  0.79918614    -0.20000
C1027       C  0.21004549  0.20594947  0.81487992    -0.25300
C1028       C  0.23188395  0.22549315  0.83268400     0.27400
H1029       H  0.30370593  0.21539759  0.82026566     0.13200
N1030       N  0.26907874  0.17804450  0.78485257    -0.82500
H1031       H  0.18485287  0.20519409  0.81344885     0.18000
N1032       N  0.21962824  0.24193951  0.84883911    -0.81100
H1033       H  0.29249318  0.19883002  0.77775838     0.33700
H1034       H  0.27566533  0.16084919  0.79306549     0.38200
H1035       H  0.19421035  0.23744609  0.84489974     0.33600
H1036       H  0.21697719  0.22935863  0.86412517     0.30300
H1037       H  0.29067472  0.18098995  0.88077464     0.33600
H1038       H  0.25497380  0.17804484  0.86816814     0.30300
H1039       H  0.35808819  0.35403388  0.87862052     0.38200
H1040       H  0.32092659  0.34844981  0.86667416     0.33700
C1041       C  0.78967821  0.97117538  0.71388598    -0.20100
C1042       C  0.75394813  0.94261804  0.71215568     0.36100
C1043       C  0.73359894  0.94002674  0.69360274    -0.26100
C1044       C  0.74802143  0.96527647  0.67646461     0.02600
C1045       C  0.78325454  0.99398376  0.67795118     0.27400
C1046       C  0.80357443  0.99694297  0.69668948    -0.25200
N1047       N  0.73825456  0.91580432  0.72918955    -0.82600
H1048       H  0.70647175  0.91788242  0.69244011     0.13200
C1049       C  0.72667669  0.96068771  0.65647321     0.02500
N1050       N  0.79848520  0.01963377  0.66012790    -0.81100
H1051       H  0.83040827  0.01919252  0.69718488     0.18000
C1052       C  0.71622102  0.98594712  0.65178661    -0.26000
C1053       C  0.69917539  0.98460727  0.63179309     0.36000
C1054       C  0.69283731  0.95751979  0.61613245    -0.20000
C1055       C  0.70199980  0.93135707  0.62139106    -0.25300
C1056       C  0.71897012  0.93273720  0.64136933     0.27400
H1057       H  0.72220285  0.00727629  0.66357965     0.13200
N1058       N  0.69000396  0.01164808  0.62695195    -0.82500
H1059       H  0.69698829  0.91037662  0.60952056     0.18000
N1060       N  0.72952382  0.90663682  0.64605574    -0.81100
H1061       H  0.69836359  0.03067192  0.63967369     0.33700
H1062       H  0.66211655  0.99917276  0.62683506     0.38200
H1063       H  0.72179740  0.88777991  0.63325959     0.33600
H1064       H  0.75744968  0.91996570  0.64633044     0.30300
H1065       H  0.82466276  0.03928930  0.66372771     0.33600
H1066       H  0.80007678  0.00613870  0.64601349     0.30300
H1067       H  0.73034286  0.89087694  0.72193825     0.38200
H1068       H  0.71539941  0.91567904  0.73540277     0.33700
C1069       C  0.79825220  0.96931493  0.79698605    -0.20100
C1070       C  0.81978728  0.99272486  0.81381673     0.36100
C1071       C  0.80410501  0.99265087  0.83460370    -0.26100
C1072       C  0.76736086  0.96988487  0.83875867     0.02600
C1073       C  0.74617996  0.94579602  0.82210941     0.27400
C1074       C  0.76178926  0.94591462  0.80140653    -0.25200
N1075       N  0.85704583  0.01731617  0.80951353    -0.82600
H1076       H  0.82033399  0.01119230  0.84740371     0.13200
C1077       C  0.75111896  0.97215167  0.86034870     0.02500
N1078       N  0.70886132  0.92132722  0.82630808    -0.81100
H1079       H  0.74534342  0.92770582  0.78853057     0.18000
C1080       C  0.72318356  0.98003470  0.86047527    -0.26000
C1081       C  0.70696283  0.98227338  0.88052993     0.36000
C1082       C  0.71962236  0.97740656  0.90102301    -0.20000
C1083       C  0.74763525  0.96949753  0.90073839    -0.25300
C1084       C  0.76315776  0.96640741  0.88069158     0.27400
H1085       H  0.71397343  0.98442806  0.84478509     0.13200
N1086       N  0.67805797  0.98980323  0.88003719    -0.82500
H1087       H  0.75738081  0.96534419  0.91628094     0.18000
N1088       N  0.79082763  0.95704043  0.88089346    -0.81100
H1089       H  0.67313746  0.99413722  0.86370684     0.33700
H1090       H  0.65499308  0.96684119  0.88559784     0.38200
H1091       H  0.79673139  0.95379470  0.89720773     0.33600
H1092       H  0.78086109  0.93211918  0.87315791     0.30300
H1093       H  0.69700931  0.90560637  0.81229494     0.33600
H1094       H  0.70700907  0.90384131  0.83891602     0.30300
H1095       H  0.86908472  0.03259454  0.82367016     0.38200
H1096       H  0.85878415  0.03520712  0.79724652     0.33700
C1097       C  0.90826157  0.02454092  0.75596026    -0.20100
C1098       C  0.92643877  0.06194138  0.75291696     0.36100
C1099       C  0.96387190  0.08151172  0.75435375    -0.26100
C1100       C  0.98353362  0.06428000  0.75866771     0.02600
C1101       C  0.96527302  0.02682608  0.76187834     0.27400
C1102       C  0.92792760  0.00752412  0.76069138    -0.25200
N1103       N  0.90699187  0.08021060  0.74884416    -0.82600
H1104       H  0.97762986  0.11031539  0.75222588     0.13200
C1105       C  0.02312887  0.08546106  0.75995619     0.02500
N1106       N  0.98477160  0.00840873  0.76591015    -0.81100
H1107       H  0.91428494  0.97877434  0.76277352     0.18000
C1108       C  0.03975695  0.08246497  0.77900966    -0.26000
C1109       C  0.07703844  0.09971553  0.78028893     0.36000
C1110       C  0.09839980  0.12139295  0.76247942    -0.20000
C1111       C  0.08192102  0.12487680  0.74353355    -0.25300
C1112       C  0.04442484  0.10713962  0.74206710     0.27400
H1113       H  0.02365010  0.06593821  0.79282814     0.13200
N1114       N  0.09302702  0.09393455  0.79933600    -0.82500
H1115       H  0.09838568  0.14122029  0.72977955     0.18000
N1116       N  0.02794826  0.11050553  0.72235595    -0.81100
H1117       H  0.08329658  0.06642194  0.80082754     0.33700
H1118       H  0.08461439  0.10224835  0.81344169     0.38200
H1119       H  0.04734800  0.12759623  0.71086662     0.33600
H1120       H  0.01444567  0.08527970  0.71488956     0.30300
H1121       H  0.96731536  0.98096345  0.76810197     0.33600
H1122       H  0.00019968  0.01117794  0.75166526     0.30300
H1123       H  0.91621913  0.09397274  0.73375318     0.38200
H1124       H  0.91288529  0.09909516  0.76145845     0.33700
C1125       C  0.98791606  0.66370845  0.60266102    -0.20100
C1126       C  0.01494001  0.66996438  0.61790319     0.36100
C1127       C  0.01814951  0.68952325  0.63746233    -0.26100
C1128       C  0.99452433  0.70238081  0.64235757     0.02600
C1129       C  0.96689386  0.69515124  0.62737537     0.27400
C1130       C  0.96427679  0.67644616  0.60760151    -0.25200
N1131       N  0.03961308  0.65738281  0.61324421    -0.82600
H1132       H  0.03962290  0.69532997  0.64878289     0.13200
C1133       C  0.99892974  0.72329241  0.66317202     0.02500
N1134       N  0.94140682  0.70659085  0.63238313    -0.81100
H1135       H  0.94339228  0.67153651  0.59599100     0.18000
C1136       C  0.00073682  0.75670374  0.66206678    -0.26000
C1137       C  0.00393150  0.77665305  0.68135481     0.36000
C1138       C  0.00605660  0.76365164  0.70253596    -0.20000
C1139       C  0.00510227  0.73038022  0.70336612    -0.25300
C1140       C  0.00111023  0.71005023  0.68410625     0.27400
H1141       H  0.99964737  0.76748890  0.64605604     0.13200
N1142       N  0.00500277  0.81030632  0.67930977    -0.82500
H1143       H  0.00711263  0.71924172  0.71882196     0.18000
N1144       N  0.99868137  0.67560194  0.68581086    -0.81100
H1145       H  0.02663055  0.82687124  0.66889720     0.33700
H1146       H  0.98156582  0.80577197  0.67163978     0.38200
H1147       H  0.00107977  0.66972318  0.70232289     0.33600
H1148       H  0.97311922  0.65632469  0.68081832     0.30300
H1149       H  0.92286915  0.69931275  0.61960306     0.33600
H1150       H  0.92702583  0.69284053  0.64660762     0.30300
H1151       H  0.05492160  0.67124959  0.59925951     0.38200
H1152       H  0.05745004  0.66372805  0.62630042     0.33700
C1153       C  0.01901146  0.70287448  0.89130134    -0.20100
C1154       C  0.02498143  0.73832547  0.89092441     0.36100
C1155       C  0.02538902  0.75423948  0.87050569    -0.26100
C1156       C  0.02026083  0.73573212  0.85042125     0.02600
C1157       C  0.01484329  0.70055824  0.85072106     0.27400
C1158       C  0.01449687  0.68459103  0.87114204    -0.25200
N1159       N  0.03123560  0.75834054  0.91121109    -0.82600
H1160       H  0.03020353  0.78144485  0.87019694     0.13200
C1161       C  0.02091103  0.75347507  0.82912504     0.02500
N1162       N  0.00928859  0.68105975  0.83028451    -0.81100
H1163       H  0.01002916  0.65751146  0.87134570     0.18000
C1164       C  0.04517188  0.75657677  0.81226681    -0.26000
C1165       C  0.04451115  0.77003604  0.79125940     0.36000
C1166       C  0.01948626  0.78111983  0.78693336    -0.20000
C1167       C  0.99675015  0.78031321  0.80415533    -0.25300
C1168       C  0.99691327  0.76618897  0.82521309     0.27400
H1169       H  0.06430718  0.74779931  0.81530075     0.13200
N1170       N  0.06931933  0.77238504  0.77427964    -0.82500
H1171       H  0.97767385  0.78905774  0.80083565     0.18000
N1172       N  0.97206778  0.76359516  0.84235476    -0.81100
H1173       H  0.09518308  0.78860727  0.78015956     0.33700
H1174       H  0.06557885  0.74672297  0.77164481     0.38200
H1175       H  0.95632054  0.77410490  0.83680858     0.33600
H1176       H  0.95471653  0.73642256  0.84553351     0.30300
H1177       H  0.00583082  0.65565309  0.83333399     0.33600
H1178       H  0.98541169  0.67712663  0.82355749     0.30300
H1179       H  0.05539637  0.76248888  0.91759846     0.38200
H1180       H  0.03463642  0.78370071  0.90804858     0.33700
C1181       C  0.95792940  0.83011537  0.74877280    -0.20100
C1182       C  0.97128921  0.86682829  0.75331022     0.36100
C1183       C  0.94773513  0.88020143  0.75582793    -0.26100
C1184       C  0.91089496  0.85793599  0.75354847     0.02600
C1185       C  0.89708288  0.82122743  0.74912318     0.27400
C1186       C  0.92074572  0.80762662  0.74684964    -0.25200
N1187       N  0.00887999  0.89128090  0.75412360    -0.82600
H1188       H  0.95846038  0.90859383  0.75870819     0.13200
C1189       C  0.88817395  0.87478529  0.75322589     0.02500
N1190       N  0.85933889  0.79826174  0.74620211    -0.81100
H1191       H  0.91018339  0.77946921  0.74329798     0.18000
C1192       C  0.88612381  0.89017791  0.73330029    -0.26000
C1193       C  0.86918117  0.91076937  0.73247206     0.36000
C1194       C  0.85205219  0.91444955  0.75184999    -0.20000
C1195       C  0.85424843  0.89903050  0.77185785    -0.25300
C1196       C  0.87258212  0.87959589  0.77279345     0.27400
H1197       H  0.89944195  0.88755907  0.71853928     0.13200
N1198       N  0.87120676  0.92961686  0.71235211    -0.82500
H1199       H  0.84222608  0.90276385  0.78687050     0.18000
N1200       N  0.87671685  0.86602924  0.79362972    -0.81100
H1201       H  0.88470970  0.92402028  0.69973633     0.33700
H1202       H  0.88658377  0.95701087  0.71562947     0.38200
H1203       H  0.86451556  0.87264246  0.80653931     0.33600
H1204       H  0.86313050  0.83809636  0.79266029     0.30300
H1205       H  0.85358876  0.77216475  0.74261558     0.33600
H1206       H  0.84655141  0.79703808  0.76137274     0.30300
H1207       H  0.01536372  0.91098995  0.74202272     0.38200
H1208       H  0.01459696  0.90374473  0.76968129     0.33700
C1209       C  0.07411882  0.88259558  0.74181424    -0.20100
C1210       C  0.09434537  0.89780977  0.76104266     0.36100
C1211       C  0.11397852  0.93530328  0.76314884    -0.26100
C1212       C  0.11288449  0.95776210  0.74666411     0.02600
C1213       C  0.09385876  0.94222460  0.72701783     0.27400
C1214       C  0.07537445  0.90492986  0.72457456    -0.25200
N1215       N  0.09427530  0.87508555  0.77846233    -0.82600
H1216       H  0.12938222  0.94705435  0.77798852     0.13200
C1217       C  0.13014218  0.99710594  0.75061922     0.02500
N1218       N  0.09132430  0.96403117  0.71007560    -0.81100
H1219       H  0.05948413  0.89332590  0.70987395     0.18000
C1220       C  0.15263864  0.02119335  0.73412412    -0.26000
C1221       C  0.16741883  0.05836691  0.73671811     0.36000
C1222       C  0.16102095  0.07177641  0.75661428    -0.20000
C1223       C  0.13970463  0.04798734  0.77343846    -0.25300
C1224       C  0.12333586  0.01079219  0.77043607     0.27400
H1225       H  0.15839503  0.01094091  0.71905288     0.13200
N1226       N  0.18886313  0.08255493  0.71926980    -0.82500
H1227       H  0.13449893  0.05851696  0.78858075     0.18000
N1228       N  0.09884768  0.98694682  0.78707759    -0.81100
H1229       H  0.19051464  0.06840333  0.70553397     0.33700
H1230       H  0.21478423  0.09779961  0.72527295     0.38200
H1231       H  0.09682771  0.00134914  0.80056135     0.33600
H1232       H  0.07352578  0.97332621  0.78000460     0.30300
H1233       H  0.10106782  0.95923417  0.69516053     0.33600
H1234       H  0.06432377  0.95589120  0.70803553     0.30300
H1235       H  0.11046759  0.89046032  0.79153242     0.38200
H1236       H  0.10576308  0.86052616  0.77195286     0.33700
loop_ 
_geom_bond_atom_site_label_1 
_geom_bond_atom_site_label_2 
_geom_bond_distance 
_geom_bond_site_symmetry_2 
_ccdc_geom_bond_type 
C1            C2   1.544   1_455  S
C1            C7   1.544       .  S
C1            C5   1.542       .  S
C1         C1138   1.543       .  S
C2            H9   1.086       .  S
C2            C3   1.370       .  D
C3            C4   1.543   1_655  S
C3         C1181   1.496       .  S
C4            C8   1.534       .  S
C4            C6   1.536       .  S
C4           H10   1.110       .  S
C5           H11   1.086       .  S
C5            C6   1.366       .  D
C6         C1209   1.480       .  S
C7           H12   1.079       .  S
C7            C8   1.363       .  D
C8         C1166   1.484       .  S
C13          C14   1.553   1_565  S
C13          C19   1.528       .  S
C13          C17   1.538       .  S
C13        C1041   1.534       .  S
C14          H21   1.080       .  S
C14          C15   1.370       .  D
C15          C16   1.536   1_545  S
C15        C1097   1.485       .  S
C16          C20   1.543       .  S
C16          C18   1.539       .  S
C16          H22   1.110       .  S
C17          H23   1.086       .  S
C17          C18   1.366       .  D
C18        C1194   1.493       .  S
C19          H24   1.087       .  S
C19          C20   1.361       .  D
C20        C1069   1.485       .  S
C25          C26   1.548       .  S
C25          C31   1.533       .  S
C25          C29   1.542       .  S
C25        C1026   1.537       .  S
C26          H33   1.082       .  S
C26          C27   1.366       .  D
C27          C28   1.535       .  S
C27        C1110   1.482       .  S
C28          C32   1.538       .  S
C28          C30   1.537       .  S
C28          H34   1.111       .  S
C29          H35   1.086       .  S
C29          C30   1.366       .  D
C30        C1222   1.479       .  S
C31          H36   1.087       .  S
C31          C32   1.362       .  D
C32         C985   1.482       .  S
In37         O39   2.252       .  S
In37         O40   2.215       .  S
In37         O48   2.227       .  S
In37         O42   2.256       .  S
In37         O44   2.264       .  S
In37         O45   2.216       .  S
In37         O46   2.224       .  S
In37         O49   2.237       .  S
C38          O44   1.264       .  A
C38          O46   1.257       .  A
C38         C957   1.479       .  S
O39          C47   1.260       .  A
O40          C47   1.258       .  A
C41          O48   1.257       .  A
C41          O42   1.264       .  A
C41         C886   1.474       .  S
C43          O45   1.261       .  A
C43          O49   1.266       .  A
C43         C914   1.480       .  S
C47         C942   1.476       .  S
In50         O52   2.257   1_455  S
In50         O53   2.220   1_455  S
In50         O61   2.226       .  S
In50         O55   2.268       .  S
In50         O57   2.271       .  S
In50         O58   2.228       .  S
In50         O59   2.226       .  S
In50         O62   2.257       .  S
C51          O57   1.265       .  A
C51          O59   1.257       .  A
C51        C1153   1.485       .  S
O52          C60   1.263       .  A
O53          C60   1.259       .  A
C54          O61   1.258       .  A
C54          O55   1.264       .  A
C54         C817   1.486       .  S
C56          O58   1.260       .  A
C56          O62   1.262       .  A
C56         C858   1.485       .  S
C60         C929   1.481       .  S
In63         O65   2.257   1_565  S
In63         O66   2.220   1_565  S
In63         O74   2.233       .  S
In63         O68   2.271       .  S
In63         O70   2.278       .  S
In63         O71   2.220       .  S
In63         O72   2.232       .  S
In63         O75   2.253       .  S
C64          O70   1.266       .  A
C64          O72   1.258       .  A
C64        C1082   1.493       .  S
O65          C73   1.264       .  A
O66          C73   1.258       .  A
C67          O74   1.257       .  A
C67          O68   1.265       .  A
C67         C774   1.491       .  S
C69          O71   1.260       .  A
C69          O75   1.262       .  A
C69         C901   1.481       .  S
C73         C789   1.483       .  S
In76         O78   2.248   1_455  S
In76         O79   2.223   1_455  S
In76         O87   2.227       .  S
In76         O81   2.264       .  S
In76         O83   2.277       .  S
In76         O84   2.216       .  S
In76         O85   2.215       .  S
In76         O88   2.250       .  S
C77          O83   1.267       .  A
C77          O85   1.256       .  A
C77         C733   1.489       .  S
O78          C86   1.264       .  A
O79          C86   1.260       .  A
C80          O87   1.258       .  A
C80          O81   1.265       .  A
C80         C830   1.478       .  S
C82          O84   1.260       .  A
C82          O88   1.263       .  A
C82         C705   1.478       .  S
C86         C802   1.484       .  S
In89         O91   2.255       .  S
In89         O92   2.242       .  S
In89        O100   2.230       .  S
In89         O94   2.269       .  S
In89         O96   2.268       .  S
In89         O97   2.239       .  S
In89         O98   2.240       .  S
In89        O101   2.246       .  S
C90          O96   1.262       .  A
C90          O98   1.259       .  A
C90        C1013   1.487       .  S
O91          C99   1.263       .  A
O92          C99   1.263       .  A
C93         O100   1.257       .  A
C93          O94   1.263       .  A
C93         C873   1.484       .  S
C95          O97   1.262       .  A
C95         O101   1.261       .  A
C95         C718   1.484       .  S
C99         C690   1.491       .  S
In102       O104   2.261   1_565  S
In102       O105   2.230   1_565  S
In102       O113   2.222       .  S
In102       O107   2.268       .  S
In102       O109   2.262       .  S
In102       O110   2.236       .  S
In102       O111   2.239       .  S
In102       O114   2.255       .  S
C103        O109   1.266       .  A
C103        O111   1.259       .  A
C103        C649   1.491       .  S
O104        C112   1.263       .  A
O105        C112   1.263       .  A
C106        O113   1.258       .  A
C106        O107   1.266       .  A
C106        C761   1.482       .  S
C108        O110   1.261       .  A
C108        O114   1.262       .  A
C108        C845   1.487       .  S
C112        C677   1.486       .  S
C115        C116   1.539       .  S
C115        C121   1.541       .  S
C115        C119   1.544       .  S
C115        C565   1.541       .  S
C116        H123   1.086       .  S
C116        C117   1.371       .  D
C117        C118   1.543       .  S
C117        C593   1.500       .  S
C118        C122   1.538       .  S
C118        C120   1.537       .  S
C118        H124   1.109       .  S
C119        H125   1.085       .  S
C119        C120   1.365       .  D
C120        C621   1.482       .  S
C121        H126   1.082       .  S
C121        C122   1.363       .  D
C122        C970   1.487       .  S
C127        C128   1.545       .  S
C127        C133   1.534       .  S
C127        C131   1.549   1_455  S
C127        C746   1.539       .  S
C128        H135   1.086       .  S
C128        C129   1.372       .  D
C129        C130   1.540       .  S
C129        C550   1.494       .  S
C130        C134   1.537       .  S
C130        C132   1.532   1_455  S
C130        H136   1.111   1_455  S
C131        H137   1.082       .  S
C131        C132   1.365       .  D
C132        C634   1.476       .  S
C133        H138   1.086       .  S
C133        C134   1.361       .  D
C134        C522   1.484   1_455  S
C139        C140   1.544   1_565  S
C139        C145   1.541       .  S
C139        C143   1.540       .  S
C139        C481   1.543       .  S
C140        H147   1.085       .  S
C140        C141   1.371       .  D
C141        C142   1.539   1_545  S
C141        C537   1.494       .  S
C142        C146   1.543       .  S
C142        C144   1.537       .  S
C142        H148   1.110       .  S
C143        H149   1.086       .  S
C143        C144   1.368       .  D
C144        C606   1.491       .  S
C145        H150   1.080       .  S
C145        C146   1.364       .  D
C146        C662   1.490       .  S
In151       O153   2.245       .  S
In151       O154   2.241       .  S
In151       O162   2.274       .  S
In151       O156   2.239       .  S
In151       O158   2.237       .  S
In151       O159   2.244       .  S
In151       O160   2.270       .  S
In151       O163   2.237       .  S
C152        O158   1.259       .  A
C152        O160   1.264       .  A
C152        C578   1.490       .  S
O153        C161   1.263       .  A
O154        C161   1.262       .  A
C155        O162   1.262       .  A
C155        O156   1.257       .  A
C155        C410   1.487       .  S
C157        O159   1.260       .  A
C157        O163   1.261       .  A
C157        C453   1.485       .  S
C161        C438   1.481       .  S
In164       O166   2.239   1_655  S
In164       O167   2.241   1_655  S
In164       O175   2.226       .  S
In164       O169   2.271       .  S
In164       O171   2.271       .  S
In164       O172   2.219       .  S
In164       O173   2.229       .  S
In164       O176   2.261       .  S
C165        O171   1.266       .  A
C165        O173   1.259       .  A
C165       C1125   1.485       .  S
O166        C174   1.262       .  A
O167        C174   1.262       .  A
C168        O175   1.257       .  A
C168        O169   1.267       .  A
C168        C341   1.490       .  S
C170        O172   1.262       .  A
C170        O176   1.264       .  A
C170        C466   1.482       .  S
C174        C382   1.485       .  S
In177       O179   2.254       .  S
In177       O180   2.221       .  S
In177       O188   2.226       .  S
In177       O182   2.270       .  S
In177       O184   2.270       .  S
In177       O185   2.219       .  S
In177       O186   2.239       .  S
In177       O189   2.254       .  S
C178        O184   1.266       .  A
C178        O186   1.258       .  A
C178        C998   1.494       .  S
O179        C187   1.263       .  A
O180        C187   1.259       .  A
C181        O188   1.257       .  A
C181        O182   1.265       .  A
C181        C397   1.488       .  S
C183        O185   1.259       .  A
C183        O189   1.263       .  A
C183        C285   1.480       .  S
C187        C326   1.478       .  S
In190       O192   2.251       .  S
In190       O193   2.233       .  S
In190       O201   2.232       .  S
In190       O195   2.260       .  S
In190       O197   2.269       .  S
In190       O198   2.231       .  S
In190       O199   2.223       .  S
In190       O202   2.245   1_565  S
C191        O197   1.263       .  A
C191        O199   1.257       .  A
C191        C494   1.479       .  S
O192        C200   1.261       .  A
O193        C200   1.261       .  A
C194        O201   1.257       .  A
C194        O195   1.262       .  A
C194        C257   1.478       .  S
C196        O198   1.263   1_545  A
C196        O202   1.263       .  A
C196        C298   1.484       .  S
C200        C369   1.481       .  S
In203       O205   2.260   1_655  S
In203       O206   2.207   1_655  S
In203       O214   2.231   1_655  S
In203       O208   2.282       .  S
In203       O210   2.279       .  S
In203       O211   2.219       .  S
In203       O212   2.244       .  S
In203       O215   2.266       .  S
C204        O210   1.263       .  A
C204        O212   1.257       .  A
C204        C509   1.492       .  S
O205        C213   1.266       .  A
O206        C213   1.259       .  A
C207        O214   1.255   1_655  A
C207        O208   1.264       .  A
C207        C354   1.489       .  S
C209        O211   1.255       .  A
C209        O215   1.264       .  A
C209        C242   1.484       .  S
C213        C313   1.481       .  S
In216       O218   2.239       .  S
In216       O219   2.217       .  S
In216       O227   2.236       .  S
In216       O221   2.260       .  S
In216       O223   2.235       .  S
In216       O224   2.229       .  S
In216       O225   2.264       .  S
In216       O228   2.255   1_565  S
C217        O223   1.256       .  A
C217        O225   1.261       .  A
C217       C1054   1.482       .  S
O218        C226   1.264       .  A
O219        C226   1.262       .  A
C220        O227   1.257       .  A
C220        O221   1.262       .  A
C220        C270   1.483       .  S
C222        O224   1.258   1_545  A
C222        O228   1.260       .  A
C222        C229   1.482       .  S
C226        C425   1.479       .  S
C229        C230   1.416       .  A
C229        C234   1.406       .  A
C230        C231   1.407       .  A
C230        N235   1.437       .  S
C231        C232   1.399       .  A
C231        H236   1.084       .  S
C232        C237   1.474       .  S
C232        C233   1.406       .  A
C233        C234   1.401       .  A
C233        N238   1.438       .  S
C234        H239   1.083       .  S
N235        H255   1.046       .  S
N235        H256   1.046       .  S
C237        C240   1.397       .  A
C237        C244   1.406       .  A
N238        H253   1.046       .  S
N238        H254   1.046       .  S
C240        C241   1.403       .  A
C240        H245   1.084       .  S
C241        C242   1.420       .  A
C241        N246   1.439       .  S
C242        C243   1.406       .  A
C243        C244   1.406       .  A
C243        H247   1.083       .  S
C244        N248   1.437       .  S
N246        H249   1.046       .  S
N246        H250   1.046       .  S
N248        H251   1.046       .  S
N248        H252   1.046       .  S
C257        C258   1.413       .  A
C257        C262   1.403       .  A
C258        C259   1.404       .  A
C258        N263   1.438       .  S
C259        C260   1.401       .  A
C259        H264   1.084       .  S
C260        C265   1.484       .  S
C260        C261   1.412       .  A
C261        C262   1.406       .  A
C261        N266   1.438   1_565  S
C262        H267   1.084   1_565  S
N263        H283   1.046       .  S
N263        H284   1.046       .  S
C265        C268   1.401       .  A
C265        C272   1.411       .  A
N266        H281   1.046       .  S
N266        H282   1.046       .  S
C268        C269   1.404       .  A
C268        H273   1.084       .  S
C269        C270   1.416       .  A
C269        N274   1.438       .  S
C270        C271   1.405       .  A
C271        C272   1.406       .  A
C271        H275   1.083       .  S
C272        N276   1.438       .  S
N274        H277   1.046       .  S
N274        H278   1.046       .  S
N276        H279   1.046       .  S
N276        H280   1.046       .  S
C285        C286   1.415       .  A
C285        C290   1.406       .  A
C286        C287   1.401       .  A
C286        N291   1.438       .  S
C287        C288   1.400       .  A
C287        H292   1.084       .  S
C288        C293   1.480       .  S
C288        C289   1.408       .  A
C289        C290   1.407       .  A
C289        N294   1.437       .  S
C290        H295   1.083       .  S
N291        H311   1.046       .  S
N291        H312   1.046       .  S
C293        C296   1.401       .  A
C293        C300   1.407       .  A
N294        H309   1.045       .  S
N294        H310   1.046       .  S
C296        C297   1.407       .  A
C296        H301   1.084       .  S
C297        C298   1.417       .  A
C297        N302   1.437       .  S
C298        C299   1.405       .  A
C299        C300   1.401       .  A
C299        H303   1.083       .  S
C300        N304   1.438       .  S
N302        H305   1.046       .  S
N302        H306   1.045       .  S
N304        H307   1.046       .  S
N304        H308   1.046       .  S
C313        C314   1.417       .  A
C313        C318   1.405       .  A
C314        C315   1.401       .  A
C314        N319   1.439       .  S
C315        C316   1.400       .  A
C315        H320   1.084       .  S
C316        C321   1.481       .  S
C316        C317   1.410       .  A
C317        C318   1.406       .  A
C317        N322   1.437       .  S
C318        H323   1.083       .  S
N319        H339   1.046       .  S
N319        H340   1.046       .  S
C321        C324   1.401       .  A
C321        C328   1.411       .  A
N322        H337   1.046       .  S
N322        H338   1.045       .  S
C324        C325   1.402       .  A
C324        H329   1.084       .  S
C325        C326   1.414       .  A
C325        N330   1.438       .  S
C326        C327   1.404       .  A
C327        C328   1.405       .  A
C327        H331   1.084       .  S
C328        N332   1.438       .  S
N330        H333   1.046       .  S
N330        H334   1.046       .  S
N332        H335   1.046       .  S
N332        H336   1.045       .  S
C341        C342   1.421       .  A
C341        C346   1.405       .  A
C342        C343   1.407       .  A
C342        N347   1.438   1_655  S
C343        C344   1.400       .  A
C343        H348   1.084   1_655  S
C344        C349   1.486       .  S
C344        C345   1.410       .  A
C345        C346   1.407       .  A
C345        N350   1.437       .  S
C346        H351   1.083       .  S
N347        H367   1.046   1_455  S
N347        H368   1.046       .  S
C349        C352   1.399   1_655  A
C349        C356   1.411       .  A
N350        H365   1.046       .  S
N350        H366   1.046       .  S
C352        C353   1.405       .  A
C352        H357   1.084       .  S
C353        C354   1.419   1_455  A
C353        N358   1.438       .  S
C354        C355   1.406       .  A
C355        C356   1.409       .  A
C355        H359   1.083       .  S
C356        N360   1.437       .  S
N358        H361   1.046       .  S
N358        H362   1.046       .  S
N360        H363   1.046       .  S
N360        H364   1.046       .  S
C369        C370   1.414       .  A
C369        C374   1.406       .  A
C370        C371   1.403       .  A
C370        N375   1.438       .  S
C371        C372   1.400       .  A
C371        H376   1.084       .  S
C372        C377   1.478       .  S
C372        C373   1.408       .  A
C373        C374   1.407       .  A
C373        N378   1.437       .  S
C374        H379   1.084       .  S
N375        H395   1.045       .  S
N375        H396   1.046       .  S
C377        C380   1.400       .  A
C377        C384   1.406       .  A
N378        H393   1.046       .  S
N378        H394   1.046       .  S
C380        C381   1.406       .  A
C380        H385   1.084       .  S
C381        C382   1.417       .  A
C381        N386   1.438       .  S
C382        C383   1.407       .  A
C383        C384   1.404       .  A
C383        H387   1.083       .  S
C384        N388   1.438       .  S
N386        H389   1.046       .  S
N386        H390   1.045       .  S
N388        H391   1.046       .  S
N388        H392   1.046       .  S
C397        C398   1.419       .  A
C397        C402   1.404       .  A
C398        C399   1.406       .  A
C398        N403   1.438       .  S
C399        C400   1.401       .  A
C399        H404   1.084       .  S
C400        C405   1.490       .  S
C400        C401   1.413       .  A
C401        C402   1.408       .  A
C401        N406   1.438       .  S
C402        H407   1.083       .  S
N403        H423   1.045       .  S
N403        H424   1.046       .  S
C405        C408   1.402       .  A
C405        C412   1.413       .  A
N406        H421   1.046       .  S
N406        H422   1.045       .  S
C408        C409   1.405       .  A
C408        H413   1.084       .  S
C409        C410   1.415       .  A
C409        N414   1.438       .  S
C410        C411   1.406       .  A
C411        C412   1.409       .  A
C411        H415   1.083       .  S
C412        N416   1.438       .  S
N414        H417   1.045       .  S
N414        H418   1.046       .  S
N416        H419   1.045       .  S
N416        H420   1.046       .  S
C425        C426   1.414       .  A
C425        C430   1.405       .  A
C426        C427   1.406       .  A
C426        N431   1.438       .  S
C427        C428   1.402       .  A
C427        H432   1.084       .  S
C428        C433   1.479       .  S
C428        C429   1.408       .  A
C429        C430   1.401       .  A
C429        N434   1.438       .  S
C430        H435   1.083       .  S
N431        H451   1.046       .  S
N431        H452   1.046       .  S
C433        C436   1.401       .  A
C433        C440   1.408       .  A
N434        H449   1.045       .  S
N434        H450   1.046       .  S
C436        C437   1.404       .  A
C436        H441   1.084       .  S
C437        C438   1.414       .  A
C437        N442   1.438       .  S
C438        C439   1.406       .  A
C439        C440   1.406       .  A
C439        H443   1.084       .  S
C440        N444   1.438       .  S
N442        H445   1.046       .  S
N442        H446   1.045       .  S
N444        H447   1.046       .  S
N444        H448   1.045       .  S
C453        C454   1.417       .  A
C453        C458   1.406       .  A
C454        C455   1.407       .  A
C454        N459   1.438       .  S
C455        C456   1.400       .  A
C455        H460   1.084       .  S
C456        C461   1.478       .  S
C456        C457   1.409       .  A
C457        C458   1.403       .  A
C457        N462   1.439       .  S
C458        H463   1.083       .  S
N459        H479   1.045       .  S
N459        H480   1.046       .  S
C461        C464   1.399       .  A
C461        C468   1.410       .  A
N462        H477   1.045       .  S
N462        H478   1.044       .  S
C464        C465   1.402       .  A
C464        H469   1.084       .  S
C465        C466   1.413       .  A
C465        N470   1.438       .  S
C466        C467   1.407       .  A
C467        C468   1.410       .  A
C467        H471   1.083       .  S
C468        N472   1.438       .  S
N470        H473   1.046       .  S
N470        H474   1.046       .  S
N472        H475   1.045       .  S
N472        H476   1.044       .  S
C481        C482   1.419       .  A
C481        C486   1.415       .  A
C482        C483   1.403       .  A
C482        N487   1.433       .  S
C483        C484   1.400       .  A
C483        H488   1.084       .  S
C484        C489   1.487       .  S
C484        C485   1.406       .  A
C485        C486   1.409       .  A
C485        N490   1.438       .  S
C486        H491   1.074       .  S
N487        H507   1.045       .  S
N487        H508   1.046       .  S
C489        C492   1.406       .  A
C489        C496   1.409       .  A
N490        H505   1.046       .  S
N490        H506   1.046       .  S
C492        C493   1.410       .  A
C492        H497   1.084       .  S
C493        C494   1.412       .  A
C493        N498   1.438       .  S
C494        C495   1.403       .  A
C495        C496   1.402       .  A
C495        H499   1.084   1_565  S
C496        N500   1.438   1_565  S
N498        H501   1.046       .  S
N498        H502   1.045       .  S
N500        H503   1.046       .  S
N500        H504   1.046       .  S
C509        C510   1.417       .  A
C509        C514   1.405       .  A
C510        C511   1.407       .  A
C510        N515   1.438       .  S
C511        C512   1.403       .  A
C511        H516   1.083       .  S
C512        C517   1.496       .  S
C512        C513   1.415       .  A
C513        C514   1.410       .  A
C513        N518   1.438       .  S
C514        H519   1.083       .  S
N515        H535   1.046   1_655  S
N515        H536   1.045       .  S
C517        C520   1.405       .  A
C517        C524   1.418   1_655  A
N518        H533   1.045       .  S
N518        H534   1.046   1_655  S
C520        C521   1.403       .  A
C520        H525   1.083       .  S
C521        C522   1.408       .  A
C521        N526   1.432       .  S
C522        C523   1.401   1_655  A
C523        C524   1.410       .  A
C523        H527   1.084       .  S
C524        N528   1.438       .  S
N526        H529   1.046       .  S
N526        H530   1.046       .  S
N528        H531   1.046       .  S
N528        H532   1.045       .  S
C537        C538   1.415       .  A
C537        C542   1.405       .  A
C538        C539   1.405       .  A
C538        N543   1.432       .  S
C539        C540   1.402       .  A
C539        H544   1.084       .  S
C540        C545   1.487       .  S
C540        C541   1.410       .  A
C541        C542   1.407       .  A
C541        N546   1.438       .  S
C542        H547   1.081       .  S
N543        H563   1.045       .  S
N543        H564   1.046       .  S
C545        C548   1.404       .  A
C545        C552   1.410       .  A
N546        H561   1.046       .  S
N546        H562   1.045       .  S
C548        C549   1.410       .  A
C548        H553   1.084       .  S
C549        C550   1.413       .  A
C549        N554   1.437       .  S
C550        C551   1.407       .  A
C551        C552   1.404       .  A
C551        H555   1.081       .  S
C552        N556   1.439       .  S
N554        H557   1.046       .  S
N554        H558   1.045       .  S
N556        H559   1.046       .  S
N556        H560   1.045       .  S
C565        C566   1.422       .  A
C565        C570   1.414       .  A
C566        C567   1.407       .  A
C566        N571   1.439       .  S
C567        C568   1.401       .  A
C567        H572   1.084       .  S
C568        C573   1.486       .  S
C568        C569   1.405       .  A
C569        C570   1.405       .  A
C569        N574   1.438       .  S
C570        H575   1.077       .  S
N571        H591   1.045       .  S
N571        H592   1.045       .  S
C573        C576   1.404       .  A
C573        C580   1.407       .  A
N574        H589   1.046       .  S
N574        H590   1.046       .  S
C576        C577   1.409       .  A
C576        H581   1.084       .  S
C577        C578   1.415       .  A
C577        N582   1.437       .  S
C578        C579   1.408       .  A
C579        C580   1.405       .  A
C579        H583   1.083       .  S
C580        N584   1.438       .  S
N582        H585   1.045       .  S
N582        H586   1.046       .  S
N584        H587   1.046       .  S
N584        H588   1.045       .  S
C593        C594   1.416       .  A
C593        C598   1.409       .  A
C594        C595   1.404       .  A
C594        N599   1.430       .  S
C595        C596   1.398       .  A
C595        H600   1.084       .  S
C596        C601   1.482   1_655  S
C596        C597   1.408       .  A
C597        C598   1.410       .  A
C597        N602   1.437       .  S
C598        H603   1.083       .  S
N599        H619   1.046       .  S
N599        H620   1.045       .  S
C601        C604   1.398       .  A
C601        C608   1.410       .  A
N602        H617   1.046       .  S
N602        H618   1.045       .  S
C604        C605   1.400       .  A
C604        H609   1.084       .  S
C605        C606   1.414       .  A
C605        N610   1.432       .  S
C606        C607   1.406       .  A
C607        C608   1.412       .  A
C607        H611   1.083       .  S
C608        N612   1.437       .  S
N610        H613   1.046       .  S
N610        H614   1.045       .  S
N612        H615   1.046       .  S
N612        H616   1.045       .  S
C621        C622   1.416       .  A
C621        C626   1.405       .  A
C622        C623   1.403       .  A
C622        N627   1.439       .  S
C623        C624   1.405       .  A
C623        H628   1.084       .  S
C624        C629   1.485       .  S
C624        C625   1.412       .  A
C625        C626   1.397       .  A
C625        N630   1.433       .  S
C626        H631   1.084       .  S
N627        H647   1.043       .  S
N627        H648   1.046       .  S
C629        C632   1.406   1_565  A
C629        C636   1.412   1_565  A
N630        H645   1.044       .  S
N630        H646   1.046       .  S
C632        C633   1.405       .  A
C632        H637   1.083       .  S
C633        C634   1.403       .  A
C633        N638   1.432       .  S
C634        C635   1.401       .  A
C635        C636   1.404       .  A
C635        H639   1.084       .  S
C636        N640   1.438   1_545  S
N638        H641   1.046       .  S
N638        H642   1.045       .  S
N640        H643   1.046       .  S
N640        H644   1.045       .  S
C649        C650   1.420       .  A
C649        C654   1.405       .  A
C650        C651   1.409       .  A
C650        N655   1.438       .  S
C651        C652   1.401       .  A
C651        H656   1.084       .  S
C652        C657   1.488       .  S
C652        C653   1.410       .  A
C653        C654   1.407       .  A
C653        N658   1.437       .  S
C654        H659   1.083       .  S
N655        H675   1.045       .  S
N655        H676   1.046       .  S
C657        C660   1.402       .  A
C657        C664   1.412   1_565  A
N658        H673   1.046   1_565  S
N658        H674   1.046   1_565  S
C660        C661   1.406       .  A
C660        H665   1.084       .  S
C661        C662   1.414       .  A
C661        N666   1.438       .  S
C662        C663   1.403   1_565  A
C663        C664   1.411       .  A
C663        H667   1.082       .  S
C664        N668   1.437       .  S
N666        H669   1.046       .  S
N666        H670   1.046       .  S
N668        H671   1.046       .  S
N668        H672   1.045       .  S
C677        C678   1.415       .  A
C677        C682   1.404       .  A
C678        C679   1.411       .  A
C678        N683   1.437       .  S
C679        C680   1.405       .  A
C679        H684   1.084       .  S
C680        C685   1.488       .  S
C680        C681   1.409   1_554  A
C681        C682   1.402   1_556  A
C681        N686   1.438       .  S
C682        H687   1.083   1_554  S
N683        H703   1.045       .  S
N683        H704   1.046       .  S
C685        C688   1.403   1_554  A
C685        C692   1.410       .  A
N686        H701   1.046       .  S
N686        H702   1.046       .  S
C688        C689   1.409       .  A
C688        H693   1.084       .  S
C689        C690   1.417       .  A
C689        N694   1.437       .  S
C690        C691   1.407   1_556  A
C691        C692   1.406       .  A
C691        H695   1.083       .  S
C692        N696   1.438       .  S
N694        H697   1.046       .  S
N694        H698   1.045       .  S
N696        H699   1.045       .  S
N696        H700   1.046       .  S
C705        C706   1.415       .  A
C705        C710   1.406       .  A
C706        C707   1.401   1_554  A
C706        N711   1.439   1_554  S
C707        C708   1.398       .  A
C707        H712   1.084       .  S
C708        C713   1.474       .  S
C708        C709   1.407   1_556  A
C709        C710   1.406       .  A
C709        N714   1.437       .  S
C710        H715   1.084       .  S
N711        H731   1.046   1_556  S
N711        H732   1.046       .  S
C713        C716   1.400       .  A
C713        C720   1.405   1_556  A
N714        H729   1.046       .  S
N714        H730   1.046       .  S
C716        C717   1.407       .  A
C716        H721   1.084       .  S
C717        C718   1.417       .  A
C717        N722   1.438       .  S
C718        C719   1.406       .  A
C719        C720   1.402   1_556  A
C719        H723   1.083   1_556  S
C720        N724   1.438       .  S
N722        H725   1.046       .  S
N722        H726   1.046       .  S
N724        H727   1.046       .  S
N724        H728   1.046       .  S
C733        C734   1.420       .  A
C733        C738   1.407       .  A
C734        C735   1.404       .  A
C734        N739   1.439       .  S
C735        C736   1.397       .  A
C735        H740   1.084       .  S
C736        C741   1.481       .  S
C736        C737   1.408       .  A
C737        C738   1.410       .  A
C737        N742   1.437   1_455  S
C738        H743   1.083       .  S
N739        H759   1.046       .  S
N739        H760   1.046       .  S
C741        C744   1.397       .  A
C741        C748   1.406   1_455  A
N742        H757   1.046       .  S
N742        H758   1.045       .  S
C744        C745   1.404       .  A
C744        H749   1.084       .  S
C745        C746   1.419       .  A
C745        N750   1.433       .  S
C746        C747   1.414   1_455  A
C747        C748   1.407       .  A
C747        H751   1.076       .  S
C748        N752   1.438       .  S
N750        H753   1.046       .  S
N750        H754   1.045       .  S
N752        H755   1.046       .  S
N752        H756   1.045       .  S
C761        C762   1.415   1_565  A
C761        C766   1.404       .  A
C762        C763   1.404       .  A
C762        N767   1.439   1_554  S
C763        C764   1.401   1_545  A
C763        H768   1.084   1_554  S
C764        C769   1.488       .  S
C764        C765   1.412       .  A
C765        C766   1.409       .  A
C765        N770   1.437       .  S
C766        H771   1.084       .  S
N767        H787   1.046   1_556  S
N767        H788   1.046       .  S
C769        C772   1.401       .  A
C769        C776   1.410   1_554  A
N770        H785   1.046       .  S
N770        H786   1.046       .  S
C772        C773   1.407       .  A
C772        H777   1.084   1_565  S
C773        C774   1.420   1_554  A
C773        N778   1.438   1_565  S
C774        C775   1.405       .  A
C775        C776   1.407       .  A
C775        H779   1.083       .  S
C776        N780   1.438       .  S
N778        H781   1.046       .  S
N778        H782   1.045   1_545  S
N780        H783   1.046       .  S
N780        H784   1.046       .  S
C789        C790   1.418   1_556  A
C789        C794   1.406       .  A
C790        C791   1.403       .  A
C790        N795   1.438       .  S
C791        C792   1.398   1_554  A
C791        H796   1.084       .  S
C792        C797   1.476       .  S
C792        C793   1.407       .  A
C793        C794   1.406       .  A
C793        N798   1.437       .  S
C794        H799   1.083       .  S
N795        H815   1.045       .  S
N795        H816   1.046       .  S
C797        C800   1.399       .  A
C797        C804   1.407   1_556  A
N798        H813   1.046       .  S
N798        H814   1.045       .  S
C800        C801   1.403       .  A
C800        H805   1.084       .  S
C801        C802   1.417   1_556  A
C801        N806   1.438       .  S
C802        C803   1.407       .  A
C803        C804   1.406       .  A
C803        H807   1.083       .  S
C804        N808   1.437       .  S
N806        H809   1.046       .  S
N806        H810   1.045       .  S
N808        H811   1.046       .  S
N808        H812   1.046       .  S
C817        C818   1.414       .  A
C817        C822   1.407       .  A
C818        C819   1.409       .  A
C818        N823   1.437       .  S
C819        C820   1.405       .  A
C819        H824   1.084       .  S
C820        C825   1.486       .  S
C820        C821   1.408   1_556  A
C821        C822   1.403   1_554  A
C821        N826   1.438       .  S
C822        H827   1.083   1_556  S
N823        H843   1.046       .  S
N823        H844   1.046       .  S
C825        C828   1.405   1_556  A
C825        C832   1.409   1_455  A
N826        H841   1.046       .  S
N826        H842   1.046   1_455  S
C828        C829   1.408       .  A
C828        H833   1.084       .  S
C829        C830   1.410       .  A
C829        N834   1.437       .  S
C830        C831   1.404   1_554  A
C831        C832   1.404   1_455  A
C831        H835   1.084   1_455  S
C832        N836   1.438       .  S
N834        H837   1.046       .  S
N834        H838   1.046       .  S
N836        H839   1.046       .  S
N836        H840   1.046       .  S
C845        C846   1.416       .  A
C845        C850   1.408       .  A
C846        C847   1.404   1_554  A
C846        N851   1.438       .  S
C847        C848   1.399   1_556  A
C847        H852   1.084       .  S
C848        C853   1.480   1_554  S
C848        C849   1.408       .  A
C849        C850   1.409       .  A
C849        N854   1.438       .  S
C850        H855   1.083       .  S
N851        H871   1.046       .  S
N851        H872   1.046   1_554  S
C853        C856   1.402       .  A
C853        C860   1.407   1_556  A
N854        H869   1.046       .  S
N854        H870   1.046       .  S
C856        C857   1.409       .  A
C856        H861   1.084       .  S
C857        C858   1.416       .  A
C857        N862   1.437       .  S
C858        C859   1.406       .  A
C859        C860   1.402   1_556  A
C859        H863   1.083   1_556  S
C860        N864   1.438       .  S
N862        H865   1.046       .  S
N862        H866   1.046       .  S
N864        H867   1.046       .  S
N864        H868   1.046       .  S
C873        C874   1.415       .  A
C873        C878   1.407       .  A
C874        C875   1.408       .  A
C874        N879   1.437       .  S
C875        C876   1.401       .  A
C875        H880   1.084       .  S
C876        C881   1.477   1_556  S
C876        C877   1.405   1_556  A
C877        C878   1.403   1_554  A
C877        N882   1.438       .  S
C878        H883   1.083       .  S
N879        H899   1.046       .  S
N879        H900   1.046       .  S
C881        C884   1.400   1_554  A
C881        C888   1.409       .  A
N882        H897   1.046       .  S
N882        H898   1.045       .  S
C884        C885   1.404   1_556  A
C884        H889   1.084       .  S
C885        C886   1.413       .  A
C885        N890   1.438       .  S
C886        C887   1.402       .  A
C887        C888   1.406       .  A
C887        H891   1.084       .  S
C888        N892   1.437       .  S
N890        H893   1.046   1_554  S
N890        H894   1.046       .  S
N892        H895   1.046       .  S
N892        H896   1.045       .  S
C901        C902   1.416       .  A
C901        C906   1.407   1_556  A
C902        C903   1.406       .  A
C902        N907   1.437       .  S
C903        C904   1.400   1_556  A
C903        H908   1.084       .  S
C904        C909   1.471       .  S
C904        C905   1.404       .  A
C905        C906   1.400       .  A
C905        N910   1.438       .  S
C906        H911   1.083       .  S
N907        H927   1.046       .  S
N907        H928   1.046       .  S
C909        C912   1.399       .  A
C909        C916   1.404       .  A
N910        H925   1.046       .  S
N910        H926   1.046       .  S
C912        C913   1.403       .  A
C912        H917   1.084   1_554  S
C913        C914   1.418       .  A
C913        N918   1.438   1_554  S
C914        C915   1.406       .  A
C915        C916   1.403       .  A
C915        H919   1.083       .  S
C916        N920   1.437       .  S
N918        H921   1.046       .  S
N918        H922   1.046       .  S
N920        H923   1.046       .  S
N920        H924   1.045       .  S
C929        C930   1.415       .  A
C929        C934   1.406       .  A
C930        C931   1.406       .  A
C930        N935   1.437       .  S
C931        C932   1.402       .  A
C931        H936   1.084       .  S
C932        C937   1.477   1_556  S
C932        C933   1.407   1_556  A
C933        C934   1.400   1_554  A
C933        N938   1.439       .  S
C934        H939   1.083   1_556  S
N935        H955   1.045       .  S
N935        H956   1.046       .  S
C937        C940   1.403       .  A
C937        C944   1.407   1_554  A
N938        H953   1.046       .  S
N938        H954   1.046       .  S
C940        C941   1.406       .  A
C940        H945   1.084       .  S
C941        C942   1.414       .  A
C941        N946   1.438       .  S
C942        C943   1.404       .  A
C943        C944   1.398   1_554  A
C943        H947   1.084   1_554  S
C944        N948   1.438       .  S
N946        H949   1.046       .  S
N946        H950   1.045       .  S
N948        H951   1.046       .  S
N948        H952   1.046       .  S
C957        C958   1.415       .  A
C957        C962   1.403       .  A
C958        C959   1.405       .  A
C958        N963   1.438       .  S
C959        C960   1.400       .  A
C959        H964   1.084       .  S
C960        C965   1.482       .  S
C960        C961   1.410       .  A
C961        C962   1.406       .  A
C961        N966   1.438       .  S
C962        H967   1.084       .  S
N963        H983   1.046       .  S
N963        H984   1.046       .  S
C965        C968   1.400       .  A
C965        C972   1.410       .  A
N966        H981   1.046       .  S
N966        H982   1.046       .  S
C968        C969   1.404       .  A
C968        H973   1.084       .  S
C969        C970   1.415       .  A
C969        N974   1.438       .  S
C970        C971   1.403       .  A
C971        C972   1.408       .  A
C971        H975   1.084       .  S
C972        N976   1.437       .  S
N974        H977   1.045       .  S
N974        H978   1.046       .  S
N976        H979   1.045       .  S
N976        H980   1.046       .  S
C985        C986   1.406       .  A
C985        C990   1.403       .  A
C986        C987   1.402       .  A
C986        N991   1.432       .  S
C987        C988   1.403       .  A
C987        H992   1.084       .  S
C988        C993   1.492       .  S
C988        C989   1.415       .  A
C989        C990   1.412       .  A
C989        N994   1.437       .  S
C990        H995   1.083       .  S
N991       H1011   1.045       .  S
N991       H1012   1.045       .  S
C993        C996   1.402       .  A
C993       C1000   1.412       .  A
N994       H1009   1.047       .  S
N994       H1010   1.045       .  S
C996        C997   1.409       .  A
C996       H1001   1.084       .  S
C997        C998   1.420       .  A
C997       N1002   1.438       .  S
C998        C999   1.406       .  A
C999       C1000   1.408       .  A
C999       H1003   1.083       .  S
C1000      N1004   1.438       .  S
N1002      H1005   1.045       .  S
N1002      H1006   1.046       .  S
N1004      H1007   1.046       .  S
N1004      H1008   1.045       .  S
C1013      C1014   1.416       .  A
C1013      C1018   1.406       .  A
C1014      C1015   1.409       .  A
C1014      N1019   1.437       .  S
C1015      C1016   1.403       .  A
C1015      H1020   1.084       .  S
C1016      C1021   1.485       .  S
C1016      C1017   1.408       .  A
C1017      C1018   1.405       .  A
C1017      N1022   1.438       .  S
C1018      H1023   1.083       .  S
N1019      H1039   1.045       .  S
N1019      H1040   1.046       .  S
C1021      C1024   1.400       .  A
C1021      C1028   1.407       .  A
N1022      H1037   1.046       .  S
N1022      H1038   1.045       .  S
C1024      C1025   1.404       .  A
C1024      H1029   1.084       .  S
C1025      C1026   1.418       .  A
C1025      N1030   1.433       .  S
C1026      C1027   1.412       .  A
C1027      C1028   1.406       .  A
C1027      H1031   1.076       .  S
C1028      N1032   1.438       .  S
N1030      H1033   1.046       .  S
N1030      H1034   1.045       .  S
N1032      H1035   1.046       .  S
N1032      H1036   1.045       .  S
C1041      C1042   1.420       .  A
C1041      C1046   1.411       .  A
C1042      C1043   1.401       .  A
C1042      N1047   1.433       .  S
C1043      C1044   1.397       .  A
C1043      H1048   1.084       .  S
C1044      C1049   1.479       .  S
C1044      C1045   1.407       .  A
C1045      C1046   1.406       .  A
C1045      N1050   1.439   1_565  S
C1046      H1051   1.075   1_565  S
N1047      H1067   1.045       .  S
N1047      H1068   1.046       .  S
C1049      C1052   1.401       .  A
C1049      C1056   1.407       .  A
N1050      H1065   1.046       .  S
N1050      H1066   1.046       .  S
C1052      C1053   1.406       .  A
C1052      H1057   1.084   1_565  S
C1053      C1054   1.414       .  A
C1053      N1058   1.437   1_565  S
C1054      C1055   1.407       .  A
C1055      C1056   1.403       .  A
C1055      H1059   1.084       .  S
C1056      N1060   1.438       .  S
N1058      H1061   1.046       .  S
N1058      H1062   1.045   1_545  S
N1060      H1063   1.046       .  S
N1060      H1064   1.046       .  S
C1069      C1070   1.411       .  A
C1069      C1074   1.404       .  A
C1070      C1071   1.410       .  A
C1070      N1075   1.438   1_565  S
C1071      C1072   1.407       .  A
C1071      H1076   1.084   1_565  S
C1072      C1077   1.490       .  S
C1072      C1073   1.410       .  A
C1073      C1074   1.403       .  A
C1073      N1078   1.438       .  S
C1074      H1079   1.084       .  S
N1075      H1095   1.046       .  S
N1075      H1096   1.045       .  S
C1077      C1080   1.405       .  A
C1077      C1084   1.408       .  A
N1078      H1093   1.045       .  S
N1078      H1094   1.046       .  S
C1080      C1081   1.410       .  A
C1080      H1085   1.084       .  S
C1081      C1082   1.415       .  A
C1081      N1086   1.437       .  S
C1082      C1083   1.409       .  A
C1083      C1084   1.406       .  A
C1083      H1087   1.083       .  S
C1084      N1088   1.438       .  S
N1086      H1089   1.046       .  S
N1086      H1090   1.046       .  S
N1088      H1091   1.045       .  S
N1088      H1092   1.046       .  S
C1097      C1098   1.409       .  A
C1097      C1102   1.403       .  A
C1098      C1099   1.405       .  A
C1098      N1103   1.432       .  S
C1099      C1100   1.405       .  A
C1099      H1104   1.084       .  S
C1100      C1105   1.486   1_655  S
C1100      C1101   1.412       .  A
C1101      C1102   1.401       .  A
C1101      N1106   1.439       .  S
C1102      H1107   1.081   1_545  S
N1103      H1123   1.045       .  S
N1103      H1124   1.046       .  S
C1105      C1108   1.403       .  A
C1105      C1112   1.413       .  A
N1106      H1121   1.046   1_545  S
N1106      H1122   1.045   1_655  S
C1108      C1109   1.400       .  A
C1108      H1113   1.084       .  S
C1109      C1110   1.411       .  A
C1109      N1114   1.433       .  S
C1110      C1111   1.401       .  A
C1111      C1112   1.408       .  A
C1111      H1115   1.083       .  S
C1112      N1116   1.437       .  S
N1114      H1117   1.046       .  S
N1114      H1118   1.046       .  S
N1116      H1119   1.045       .  S
N1116      H1120   1.046       .  S
C1125      C1126   1.412   1_655  A
C1125      C1130   1.405       .  A
C1126      C1127   1.410       .  A
C1126      N1131   1.438       .  S
C1127      C1128   1.407   1_455  A
C1127      H1132   1.083       .  S
C1128      C1133   1.495       .  S
C1128      C1129   1.412       .  A
C1129      C1130   1.406       .  A
C1129      N1134   1.438       .  S
C1130      H1135   1.084       .  S
N1131      H1151   1.046       .  S
N1131      H1152   1.045       .  S
C1133      C1136   1.404   1_655  A
C1133      C1140   1.409   1_655  A
N1134      H1149   1.047       .  S
N1134      H1150   1.044       .  S
C1136      C1137   1.406       .  A
C1136      H1141   1.084   1_455  S
C1137      C1138   1.417       .  A
C1137      N1142   1.433       .  S
C1138      C1139   1.414       .  A
C1139      C1140   1.407       .  A
C1139      H1143   1.073       .  S
C1140      N1144   1.439   1_455  S
N1142      H1145   1.046       .  S
N1142      H1146   1.045   1_455  S
N1144      H1147   1.046   1_655  S
N1144      H1148   1.045       .  S
C1153      C1154   1.417       .  A
C1153      C1158   1.403       .  A
C1154      C1155   1.406       .  A
C1154      N1159   1.438       .  S
C1155      C1156   1.401       .  A
C1155      H1160   1.084       .  S
C1156      C1161   1.488       .  S
C1156      C1157   1.413       .  A
C1157      C1158   1.408       .  A
C1157      N1162   1.438       .  S
C1158      H1163   1.083       .  S
N1159      H1179   1.046       .  S
N1159      H1180   1.046       .  S
C1161      C1164   1.402       .  A
C1161      C1168   1.415   1_455  A
N1162      H1177   1.045       .  S
N1162      H1178   1.046   1_455  S
C1164      C1165   1.400       .  A
C1164      H1169   1.084       .  S
C1165      C1166   1.409       .  A
C1165      N1170   1.433       .  S
C1166      C1167   1.402   1_455  A
C1167      C1168   1.410       .  A
C1167      H1171   1.084       .  S
C1168      N1172   1.437       .  S
N1170      H1173   1.045       .  S
N1170      H1174   1.046       .  S
N1172      H1175   1.046       .  S
N1172      H1176   1.045       .  S
C1181      C1182   1.414       .  A
C1181      C1186   1.408       .  A
C1182      C1183   1.401       .  A
C1182      N1187   1.430   1_655  S
C1183      C1184   1.398       .  A
C1183      H1188   1.084       .  S
C1184      C1189   1.482       .  S
C1184      C1185   1.410       .  A
C1185      C1186   1.412       .  A
C1185      N1190   1.437       .  S
C1186      H1191   1.083       .  S
N1187      H1207   1.046       .  S
N1187      H1208   1.046       .  S
C1189      C1192   1.399       .  A
C1189      C1196   1.409       .  A
N1190      H1205   1.045       .  S
N1190      H1206   1.045       .  S
C1192      C1193   1.404       .  A
C1192      H1197   1.084       .  S
C1193      C1194   1.418       .  A
C1193      N1198   1.439       .  S
C1194      C1195   1.405       .  A
C1195      C1196   1.411       .  A
C1195      H1199   1.083       .  S
C1196      N1200   1.437       .  S
N1198      H1201   1.046       .  S
N1198      H1202   1.046       .  S
N1200      H1203   1.045       .  S
N1200      H1204   1.045       .  S
C1209      C1210   1.408       .  A
C1209      C1214   1.401       .  A
C1210      C1211   1.407       .  A
C1210      N1215   1.437       .  S
C1211      C1212   1.407       .  A
C1211      H1216   1.083       .  S
C1212      C1217   1.492       .  S
C1212      C1213   1.412       .  A
C1213      C1214   1.401       .  A
C1213      N1218   1.432       .  S
C1214      H1219   1.084       .  S
N1215      H1235   1.047       .  S
N1215      H1236   1.044       .  S
C1217      C1220   1.407   1_565  A
C1217      C1224   1.415   1_565  A
N1218      H1233   1.046       .  S
N1218      H1234   1.045       .  S
C1220      C1221   1.406       .  A
C1220      H1225   1.083       .  S
C1221      C1222   1.406       .  A
C1221      N1226   1.436       .  S
C1222      C1223   1.401       .  A
C1223      C1224   1.404       .  A
C1223      H1227   1.083       .  S
C1224      N1228   1.438   1_545  S
N1226      H1229   1.045       .  S
N1226      H1230   1.045       .  S
N1228      H1231   1.046   1_565  S
N1228      H1232   1.046       .  S
