geometry optimzed in LAMMPS
_audit_creation_date              2020-11-30 
_audit_creation_method            'lammps2cif' 
_symmetry_space_group_name_H-M    'P1' 
_symmetry_Int_Tables_number       1 
_symmetry_cell_setting            triclinic 
loop_ 
_symmetry_equiv_pos_as_xyz 
  x,y,z 
_cell_length_a                    39.52277157 
_cell_length_b                    38.43958589679461 
_cell_length_c                    32.172965607897936 
_cell_angle_alpha                 86.02145477444743 
_cell_angle_beta                  90.55518773660312 
_cell_angle_gamma                 120.82063402393088 
loop_ 
_atom_site_label 
_atom_site_type_symbol 
_atom_site_fract_x 
_atom_site_fract_y 
_atom_site_fract_z 
_atom_site_charge 
C1          C  0.97979679  0.87165132  0.00554766     0.03000
C2          C  0.98416769  0.90899447  0.99065562     0.03000
C3          C  0.02685845  0.94161931  0.48018356    -0.17500
C4          C  0.05578503  0.94452347  0.50794269     0.03000
C5          C  0.05076976  0.90771668  0.52815186     0.03000
C6          C  0.01248757  0.87137037  0.02320823    -0.17500
H7          H  0.00983713  0.84251483  0.03265413     0.05000
H8          H  0.03022479  0.96962720  0.46576081     0.05000
O9          O  0.65500675  0.59268005  0.04965068    -0.57100
C10         C  0.61254495  0.48475846  0.13491448     0.75500
O11         O  0.71538633  0.56260551  0.15384584    -0.58200
C12         C  0.68665822  0.62691328  0.05051439     0.75500
C13         C  0.63640357  0.60221118  0.18424277     0.77900
Cd14       Cd  0.66163010  0.56963641  0.12177350     1.37500
O15         O  0.61078089  0.50193955  0.10027444    -0.57100
O16         O  0.61204026  0.57629501  0.16050526    -0.55900
C17         C  0.71156292  0.53660250  0.12892776     0.77900
O18         O  0.67252143  0.61390925  0.17847854    -0.58300
O19         O  0.62859515  0.50762716  0.16433109    -0.56700
O20         O  0.70527834  0.63451984  0.08405359    -0.56700
O21         O  0.69330538  0.53543259  0.09614655    -0.55900
O22         O  0.71546896  0.67445939  0.38611568    -0.57100
C23         C  0.82563255  0.73803577  0.97226634     0.75500
O24         O  0.75881112  0.78160537  0.96122243    -0.58200
C25         C  0.69282621  0.68849669  0.37872448     0.75500
C26         C  0.70320661  0.65583691  0.01395236     0.77900
Cd27       Cd  0.74738156  0.71480814  0.94726644     1.37500
O28         O  0.81369938  0.72355945  0.43695781    -0.57100
O29         O  0.71438393  0.64661511  0.98190078    -0.55900
C30         C  0.78991069  0.80024753  0.93787818     0.77900
O31         O  0.71011632  0.69196972  0.01424433    -0.58300
O32         O  0.79985044  0.73644004  0.99660223    -0.56700
O33         O  0.69723694  0.71671969  0.40048280    -0.56700
O34         O  0.79560361  0.78109698  0.40891527    -0.55900
O35         O  0.64392803  0.63578500  0.33872116    -0.57100
C36         C  0.52650681  0.59284313  0.33453447     0.75500
O37         O  0.54590937  0.64743421  0.25237975    -0.58200
C38         C  0.66204874  0.67268726  0.34721374     0.75500
C39         C  0.62322507  0.61676211  0.21800334     0.77900
Cd40       Cd  0.59837152  0.64237583  0.28827277     1.37500
O41         O  0.55122587  0.62822830  0.34417824    -0.57100
O42         O  0.59168725  0.59315163  0.23879845    -0.55900
C43         C  0.55630272  0.68208192  0.26410582     0.77900
O44         O  0.64314137  0.65290389  0.22859345    -0.58300
O45         O  0.53953965  0.57635342  0.31175487    -0.56700
O46         O  0.65129333  0.69528376  0.32833830    -0.56700
O47         O  0.59188146  0.70317608  0.27475452    -0.55900
C48         C  0.68337491  0.35792151  0.20211420     0.03000
C49         C  0.70938027  0.38589727  0.16968632     0.03000
C50         C  0.74160785  0.38157080  0.15759286    -0.17500
C51         C  0.74420238  0.34735978  0.17260480     0.03000
C52         C  0.71773714  0.32191602  0.20594958     0.03000
C53         C  0.70040059  0.33990167  0.22718471    -0.17500
H54         H  0.68924151  0.32855582  0.25853345     0.05000
H55         H  0.76538727  0.40539206  0.13793949     0.05000
C56         C  0.61568439  0.33694908  0.16831446     0.03000
C57         C  0.63826311  0.33434880  0.20160559     0.03000
C58         C  0.61819638  0.29740725  0.22676993    -0.17500
C59         C  0.60051190  0.26131288  0.20592194     0.03000
C60         C  0.57478870  0.26169079  0.17476837     0.03000
C61         C  0.58332443  0.29995734  0.15590097    -0.17500
H62         H  0.56218728  0.30104073  0.13490736     0.05000
H63         H  0.62676134  0.29659219  0.25842962     0.05000
C64         C  0.70007024  0.25220064  0.18072324     0.03000
C65         C  0.69579020  0.27568353  0.20966978     0.03000
C66         C  0.65839165  0.25590681  0.22998032    -0.17500
C67         C  0.62526848  0.24038533  0.20449810     0.03000
C68         C  0.62762166  0.21767795  0.17209826     0.03000
C69         C  0.66502497  0.22258777  0.16263594    -0.17500
H70         H  0.66585406  0.19990745  0.14525366     0.05000
H71         H  0.65609195  0.26363902  0.26082633     0.05000
C72         C  0.95675876  0.92148918  0.00602863     0.03000
C73         C  0.93896873  0.93498198  0.97653809     0.03000
C74         C  0.94766991  0.97525816  0.97629366    -0.17500
C75         C  0.96514897  0.99842821  0.01088327     0.03000
C76         C  0.98667135  0.98581282  0.03742254     0.03000
C77         C  0.96992131  0.94306087  0.04201324    -0.17500
H78         H  0.97939534  0.92948847  0.06638901     0.05000
H79         H  0.93593558  0.98603383  0.95158737     0.05000
O80         O  0.41232673  0.09951945  0.20235093    -0.57100
C81         C  0.37238050  0.97742457  0.24080334     0.75500
O82         O  0.37347225  0.98858028  0.11411863    -0.58200
C83         C  0.42341583  0.12025883  0.16747922     0.75500
C84         C  0.48535589  0.07126922  0.15864853     0.77900
Cd85       Cd  0.40149388  0.03690016  0.16994602     1.37500
O86         O  0.40193774  0.98543527  0.21838597    -0.57100
O87         O  0.46820998  0.06722695  0.19312886    -0.55900
C88         C  0.34668230  0.99682114  0.10646642     0.77900
O89         O  0.46299266  0.05446722  0.12869462    -0.58300
O90         O  0.35539416  0.99718794  0.23109639    -0.56700
O91         O  0.41419608  0.10055666  0.13530645    -0.56700
O92         O  0.34535645  0.02220808  0.12833033    -0.55900
O93         O  0.32397247  0.92537470  0.28944677    -0.57100
C94         C  0.28601109  0.80137341  0.33380488     0.75500
O95         O  0.38373529  0.87358308  0.39062976    -0.58200
C96         C  0.35959325  0.94697238  0.27649061     0.75500
C97         C  0.31157652  0.91435965  0.41227884     0.77900
Cd98       Cd  0.33863404  0.88689234  0.34595455     1.37500
O99         O  0.29425676  0.82781528  0.30364336    -0.57100
O100        O  0.28956168  0.88142094  0.39582118    -0.55900
C101        C  0.39575830  0.86389424  0.35954178     0.77900
O102        O  0.34689162  0.93536989  0.39836423    -0.58300
O103        O  0.29725371  0.81519094  0.36896583    -0.56700
O104        O  0.38438381  0.94071331  0.29540501    -0.56700
O105        O  0.39101659  0.87662291  0.32400293    -0.55900
O106        O  0.30924796  0.00137116  0.05122510    -0.57100
C107        C  0.18351603  0.89390741  0.53673047     0.75500
O108        O  0.24713028  0.99115668  0.45730526    -0.58200
C109        C  0.31865520  0.97932367  0.07327734     0.75500
C110        C  0.29624040  0.92700597  0.44578779     0.77900
Cd111      Cd  0.26280385  0.94951382  0.51043899     1.37500
O112        O  0.20628780  0.90938392  0.06480263    -0.57100
O113        O  0.26738620  0.90096970  0.46900724    -0.55900
C114        C  0.23317626  0.00529857  0.98703213     0.77900
O115        O  0.31043274  0.96402868  0.45246884    -0.58300
O116        O  0.19620646  0.89423632  0.50073068    -0.56700
O117        O  0.30180172  0.94212818  0.06605857    -0.56700
O118        O  0.24105311  0.99860395  0.02373417    -0.55900
O119        O  0.95645286  0.28065533  0.21815860    -0.57100
C120        C  0.84248956  0.24510523  0.18495747     0.75500
O121        O  0.88294733  0.31679917  0.11597682    -0.58200
C122        C  0.97701501  0.31694313  0.22825912     0.75500
C123        C  0.95737806  0.27416030  0.09869419     0.77900
Cd124      Cd  0.92242647  0.29702654  0.16091969     1.37500
O125        O  0.86636673  0.27025828  0.20945859    -0.57100
O126        O  0.92497432  0.24952031  0.11744972    -0.55900
C127        C  0.88727774  0.34415708  0.13884884     0.77900
O128        O  0.97389659  0.31107145  0.10702991    -0.58300
O129        O  0.85758449  0.23535936  0.15689706    -0.56700
O130        O  0.97155007  0.34312890  0.20833127    -0.56700
O131        O  0.91759544  0.35868587  0.16093418    -0.55900
O132        O  0.03871105  0.33878496  0.39681312    -0.57100
C133        C  0.09943886  0.44135181  0.31207178     0.75500
O134        O  0.12901143  0.36628280  0.30285682    -0.58200
C135        C  0.03024802  0.30217320  0.39679902     0.75500
C136        C  0.00591495  0.32879043  0.26141258     0.77900
Cd137      Cd  0.06401133  0.35704940  0.32458344     1.37500
O138        O  0.07143403  0.42213523  0.33923959    -0.57100
O139        O  0.00884914  0.35384191  0.28690018    -0.55900
C140        C  0.14631144  0.38644816  0.33409572     0.77900
O141        O  0.02967495  0.31573371  0.26519214    -0.58300
O142        O  0.10349286  0.42047780  0.28597715    -0.56700
O143        O  0.03451664  0.29015223  0.36261458    -0.56700
O144        O  0.12405046  0.38456569  0.36318338    -0.55900
O145        O  0.96414171  0.15778873  0.48362646    -0.57100
C146        C  0.01939825  0.27589392  0.43532697     0.75500
O147        O  0.01090174  0.27251252  0.06614703    -0.58200
C148        C  0.95948406  0.14019627  0.51989380     0.75500
C149        C  0.05992463  0.19749923  0.51252483     0.77900
Cd150      Cd  0.00562213  0.22501578  0.50950328     1.37500
O151        O  0.99115266  0.23917693  0.43758767    -0.57100
O152        O  0.05824261  0.21735383  0.48044930    -0.55900
C153        C  0.97416368  0.25948417  0.06899889     0.77900
O154        O  0.04362683  0.20253690  0.05042541    -0.58300
O155        O  0.03972556  0.28880255  0.46744909    -0.56700
O156        O  0.96341810  0.16186876  0.05378604    -0.56700
O157        O  0.95168008  0.23148342  0.04615014    -0.55900
C158        C  0.07839358  0.98496980  0.52621113     0.03000
C159        C  0.10324148  0.01957639  0.49927968     0.03000
C160        C  0.09483573  0.05103513  0.49432762    -0.17500
C161        C  0.06027343  0.04665366  0.51262016     0.03000
C162        C  0.03554219  0.01091159  0.53908260     0.03000
C163        C  0.05463400  0.99001597  0.55459501    -0.17500
H164        H  0.03775873  0.96719514  0.08108132     0.05000
H165        H  0.11577341  0.07939084  0.47720221     0.05000
C166        C  0.31157786  0.64751379  0.36918425     0.03000
C167        C  0.28889006  0.65627708  0.33891114     0.03000
C168        C  0.25665747  0.62360372  0.32033743    -0.17500
C169        C  0.24890876  0.58394801  0.32686904     0.03000
C170        C  0.27402336  0.57701211  0.35192147     0.03000
C171        C  0.29301605  0.60530195  0.38202320    -0.17500
H172        H  0.30283424  0.59455775  0.40922059     0.05000
H173        H  0.23538852  0.62851922  0.30311719     0.05000
C174        C  0.41890455  0.68001511  0.32488375     0.03000
C175        C  0.39483370  0.64451870  0.35049506     0.03000
C176        C  0.37497843  0.64900706  0.38379247    -0.17500
C177        C  0.35708442  0.67266936  0.37529038     0.03000
C178        C  0.38446065  0.71145936  0.35469878     0.03000
C179        C  0.41519042  0.71431037  0.32923921    -0.17500
H180        H  0.43727033  0.74355509  0.31446340     0.05000
H181        H  0.36231985  0.62371724  0.40772276     0.05000
C182        C  0.37174185  0.56954756  0.34641460     0.03000
C183        C  0.37121662  0.60478322  0.33140837     0.03000
C184        C  0.33609975  0.59921228  0.31444814    -0.17500
C185        C  0.30039425  0.56606263  0.33080609     0.03000
C186        C  0.29974185  0.52988256  0.34315886     0.03000
C187        C  0.33593858  0.53171649  0.34941220    -0.17500
H188        H  0.33631583  0.50394622  0.35632346     0.05000
H189        H  0.33586982  0.62608603  0.30220618     0.05000
C190        C  0.07523567  0.10982213  0.54631748    -0.01100
C191        C  0.05883418  0.08460993  0.51291459     0.08600
C192        C  0.04970999  0.10007759  0.47641250    -0.01200
C193        C  0.05300901  0.13851963  0.47472419    -0.01200
C194        C  0.06698743  0.16291068  0.50944860     0.08700
C195        C  0.08016595  0.14900810  0.54413773    -0.01400
Br196      Br  0.09806926  0.18033748  0.09485440     0.00000
Br197      Br  0.08326044  0.08738899  0.09906134     0.00000
Br198      Br  0.03708798  0.15590900  0.42423888     0.00000
Br199      Br  0.03308127  0.06836581  0.42827143     0.00000
C200        C  0.20806564  0.42733685  0.37397094    -0.01100
C201        C  0.18968532  0.41615821  0.33505943     0.08600
C202        C  0.21037170  0.44064254  0.29852746    -0.01200
C203        C  0.24721457  0.47654326  0.30144694    -0.01200
C204        C  0.26277082  0.48992209  0.34073066     0.08700
C205        C  0.24364337  0.46471168  0.37688214    -0.01400
Br206      Br  0.26520895  0.48277710  0.43054046     0.00000
Br207      Br  0.18500474  0.39135751  0.42361374     0.00000
Br208      Br  0.27675917  0.50747934  0.25123139     0.00000
Br209      Br  0.18774094  0.42812060  0.24418164     0.00000
C210        C  0.14406659  0.49940176  0.35382246    -0.01100
C211        C  0.13073570  0.48449653  0.31428231     0.08600
C212        C  0.15473026  0.50623503  0.27834998    -0.01200
C213        C  0.19341461  0.53885071  0.28237268    -0.01200
C214        C  0.20805325  0.55043132  0.32216921     0.08700
C215        C  0.18261788  0.53201862  0.35770271    -0.01400
Br216      Br  0.20011506  0.55063601  0.41250566     0.00000
Br217      Br  0.11153299  0.47409827  0.40405114     0.00000
Br218      Br  0.22711618  0.56659203  0.23358943     0.00000
Br219      Br  0.13494693  0.49120720  0.22335385     0.00000
C220        C  0.14934664  0.01318348  0.45050990    -0.01100
C221        C  0.14302563  0.02780433  0.48684529     0.08600
C222        C  0.17134072  0.04946173  0.01439543    -0.01200
C223        C  0.20589224  0.04757667  0.01045858    -0.01200
C224        C  0.20925988  0.02522287  0.97921504     0.08700
C225        C  0.18511150  0.01386878  0.44439570    -0.01400
Br226      Br  0.19539255  0.99766606  0.39286633     0.00000
Br227      Br  0.10853356  0.99080328  0.41030187     0.00000
Br228      Br  0.24703401  0.07318910  0.05015591     0.00000
Br229      Br  0.16556561  0.07670648  0.05962459     0.00000
C230        C  0.36937245  0.79411633  0.34535113    -0.01100
C231        C  0.39992997  0.82795811  0.36263596     0.08600
C232        C  0.42992836  0.82325750  0.38167554    -0.01200
C233        C  0.42660498  0.78427931  0.38111955    -0.01200
C234        C  0.38996497  0.75027605  0.36910658     0.08700
C235        C  0.35898973  0.75713707  0.36679062    -0.01400
Br236      Br  0.33717990  0.75132485  0.42199446     0.00000
Br237      Br  0.37702823  0.79787351  0.28603202     0.00000
Br238      Br  0.46950816  0.77799976  0.39924928     0.00000
Br239      Br  0.47490590  0.86890932  0.40343121     0.00000
C240        C  0.26322041  0.69729856  0.36825560    -0.01100
C241        C  0.28460069  0.69254363  0.33631357     0.08600
C242        C  0.28940083  0.71403135  0.29717160    -0.01200
C243        C  0.28056104  0.74536307  0.29311925    -0.01200
C244        C  0.26996867  0.75731746  0.32885159     0.08700
C245        C  0.25635589  0.72993184  0.36466327    -0.01400
Br246      Br  0.22774111  0.73699462  0.40829135     0.00000
Br247      Br  0.24395567  0.65991409  0.41738443     0.00000
Br248      Br  0.28276270  0.77137007  0.23895151     0.00000
Br249      Br  0.30875053  0.70090621  0.24930922     0.00000
C250        C  0.96429189  0.08557416  0.06141511    -0.01100
C251        C  0.95128596  0.09797058  0.52619650     0.08600
C252        C  0.92789696  0.06911382  0.49824849    -0.01200
C253        C  0.92759131  0.03242971  0.49877856    -0.01200
C254        C  0.95660289  0.02785250  0.52121747     0.08700
C255        C  0.96578561  0.04985318  0.05895674    -0.01400
Br256      Br  0.97685501  0.02713667  0.10907975     0.00000
Br257      Br  0.98719447  0.11715357  0.10898105     0.00000
Br258      Br  0.87894439  0.98596223  0.48240407     0.00000
Br259      Br  0.89380370  0.07812025  0.46137547     0.00000
C260        C  0.57800274  0.16667083  0.12515452    -0.01100
C261        C  0.59444072  0.17626070  0.16483997     0.08600
C262        C  0.58420826  0.14395243  0.19560973    -0.01200
C263        C  0.55127423  0.10529113  0.19037991    -0.01200
C264        C  0.52894445  0.09858900  0.15425960     0.08700
C265        C  0.54577690  0.12726217  0.11955570    -0.01400
Br266      Br  0.52529639  0.11247211  0.06488895     0.00000
Br267      Br  0.59834976  0.20811897  0.07964932     0.00000
Br268      Br  0.53503288  0.06203402  0.23377912    -0.01800
Br269      Br  0.61328005  0.15272402  0.24624405     0.00000
C270        C  0.74968748  0.24014533  0.22099638    -0.01100
C271        C  0.73481166  0.24605452  0.18219224     0.08600
C272        C  0.75062087  0.24130611  0.14506758    -0.01200
C273        C  0.78267350  0.23476688  0.14640818    -0.01200
C274        C  0.80057523  0.23449550  0.18473884     0.08700
C275        C  0.78234194  0.23464870  0.22194655    -0.01400
Br276      Br  0.80153468  0.22541990  0.27466979     0.00000
Br277      Br  0.72536444  0.23703582  0.27409422     0.00000
Br278      Br  0.80204022  0.22735662  0.09468666     0.00000
Br279      Br  0.72992481  0.24517839  0.09130004     0.00000
C280        C  0.49897981  0.23152237  0.18565754    -0.01100
C281        C  0.53254163  0.22810525  0.17533540     0.08600
C282        C  0.52396816  0.18896790  0.17095909    -0.01200
C283        C  0.49081651  0.16697899  0.14743567    -0.01200
C284        C  0.45638520  0.16265886  0.16399724     0.08700
C285        C  0.46021172  0.19616929  0.18406437    -0.01400
Br286      Br  0.41440386  0.19405526  0.20660989     0.00000
Br287      Br  0.50516389  0.28015167  0.20628760     0.00000
Br288      Br  0.49598346  0.18018535  0.08843237     0.00000
Br289      Br  0.51983330  0.16299574  0.22579001     0.00000
C290        C  0.80779064  0.35260240  0.19529371    -0.01100
C291        C  0.78142675  0.34759064  0.16304926     0.08600
C292        C  0.79347977  0.34839470  0.12148854    -0.01200
C293        C  0.82942828  0.35010977  0.11289338    -0.01200
C294        C  0.85447933  0.35218786  0.14557298     0.08700
C295        C  0.84355038  0.35425742  0.18685527    -0.01400
Br296      Br  0.87572043  0.35690518  0.23372545     0.00000
Br297      Br  0.79703803  0.36069146  0.25129357     0.00000
Br298      Br  0.84473819  0.35073908  0.05592746     0.00000
Br299      Br  0.76107140  0.34757741  0.07584625     0.00000
C300        C  0.47092748  0.58501798  0.37955170    -0.01100
C301        C  0.48375656  0.57597027  0.34303714     0.08600
C302        C  0.45737730  0.56039246  0.30986107    -0.01200
C303        C  0.42090345  0.55844712  0.31144834    -0.01200
C304        C  0.40933917  0.56981891  0.34688894     0.08700
C305        C  0.43333947  0.58079657  0.38182576    -0.01400
Br306      Br  0.41444108  0.58960302  0.43271813     0.00000
Br307      Br  0.50503193  0.60404842  0.42634259     0.00000
Br308      Br  0.38743798  0.54222558  0.26369128     0.00000
Br309      Br  0.47155809  0.54496910  0.25985403     0.00000
C310        C  0.45836031  0.67871934  0.26426859    -0.01100
C311        C  0.45574922  0.68547111  0.30625580     0.08600
C312        C  0.48835771  0.69627839  0.33178942    -0.01200
C313        C  0.52385108  0.70222506  0.31523269    -0.01200
C314        C  0.52574809  0.69221922  0.27410218     0.08700
C315        C  0.49270336  0.68065504  0.24861776    -0.01400
Br316      Br  0.49390923  0.66628595  0.19267076     0.00000
Br317      Br  0.41375447  0.66404418  0.22939331     0.00000
Br318      Br  0.56826121  0.72040572  0.35155409     0.00000
Br319      Br  0.48320832  0.69791364  0.39114086     0.00000
C320        C  0.85534680  0.86580992  0.40942720    -0.01100
C321        C  0.82245592  0.84252358  0.94379682     0.08600
C322        C  0.82931108  0.85689175  0.98418308    -0.01200
C323        C  0.86721990  0.88756325  0.99439938    -0.01200
C324        C  0.89860302  0.90474933  0.96429879     0.08700
C325        C  0.89383291  0.89563270  0.41984370    -0.01400
Br326      Br  0.93523919  0.92293273  0.37752686     0.00000
Br327      Br  0.84361580  0.85542940  0.35168035     0.00000
Br328      Br  0.87553454  0.90552268  0.05036556     0.00000
Br329      Br  0.78804818  0.83422615  0.02714765     0.00000
C330        C  0.59569004  0.42294068  0.18122039    -0.01100
C331        C  0.60299275  0.44178762  0.14044041     0.08600
C332        C  0.61124159  0.42375148  0.10805786    -0.01200
C333        C  0.61463245  0.38919871  0.11719317    -0.01200
C334        C  0.61340827  0.37437501  0.15893130     0.08700
C335        C  0.60279627  0.39098698  0.19093741    -0.01400
Br336      Br  0.59603773  0.36984874  0.24851484     0.00000
Br337      Br  0.57393476  0.43982622  0.22374653     0.00000
Br338      Br  0.62036685  0.36179118  0.07208411     0.00000
Br339      Br  0.61987206  0.44655167  0.05106609     0.00000
C340        C  0.71471496  0.45071055  0.19141253    -0.01100
C341        C  0.71255841  0.42622730  0.15921588     0.08600
C342        C  0.71907378  0.44318030  0.11744790    -0.01200
C343        C  0.72374491  0.48185723  0.10793367    -0.01200
C344        C  0.72105971  0.50408014  0.13978502     0.08700
C345        C  0.71822120  0.48885210  0.18181566    -0.01400
Br346      Br  0.71747096  0.51870119  0.22753413     0.00000
Br347      Br  0.71590113  0.43436129  0.24948023     0.00000
Br348      Br  0.73480763  0.50456196  0.05067046     0.00000
Br349      Br  0.72143843  0.41386450  0.07221782     0.00000
C350        C  0.11921148  0.93764698  0.03540611    -0.01100
C351        C  0.08447588  0.90713747  0.54919437     0.08600
C352        C  0.08224997  0.87349476  0.57382962    -0.01200
C353        C  0.11553346  0.86805243  0.57280116    -0.01200
C354        C  0.14503480  0.89077528  0.54112703     0.08700
C355        C  0.13847524  0.92088658  0.01670852    -0.01400
Br356      Br  0.12559975  0.90743443  0.96030255     0.00000
Br357      Br  0.14871879  0.97154434  0.07915490     0.00000
Br358      Br  0.11914425  0.82921082  0.61041736     0.00000
Br359      Br  0.03796096  0.83962648  0.61118850     0.00000
C360        C  0.93309534  0.82197449  0.95669419    -0.01100
C361        C  0.94281211  0.83319250  0.99786907     0.08600
C362        C  0.91692681  0.80830638  0.03097563    -0.01200
C363        C  0.88046224  0.77357815  0.02283821    -0.01200
C364        C  0.86850977  0.76458503  0.98116432     0.08700
C365        C  0.89601971  0.78842410  0.94816735    -0.01400
Br366      Br  0.88295862  0.77837628  0.89050884     0.00000
Br367      Br  0.97086198  0.85313689  0.91156409     0.00000
Br368      Br  0.84737047  0.73851965  0.06945217     0.00000
Br369      Br  0.93244025  0.82797074  0.58431374     0.00000
C370        C  0.98344189  0.87168022  0.50244834     0.03000
C371        C  0.98824852  0.90916817  0.48752819     0.03000
C372        C  0.02259287  0.94149712  0.98227394    -0.17500
C373        C  0.05222793  0.94486477  0.00919613     0.03000
C374        C  0.04770629  0.90839913  0.02963700     0.03000
C375        C  0.01559520  0.87091729  0.52089882    -0.17500
H376        H  0.01248887  0.84186626  0.53033378     0.05000
H377        H  0.02560198  0.96930640  0.96772495     0.05000
O378        O  0.65360432  0.59993411  0.55173572    -0.57100
C379        C  0.61339391  0.48592928  0.63050931     0.75500
O380        O  0.71401668  0.56285669  0.65436444    -0.58200
C381        C  0.68875310  0.63004163  0.55004836     0.75500
C382        C  0.63645506  0.60270837  0.68407327     0.77900
Cd383      Cd  0.66196524  0.57136608  0.62037928     1.37500
O384        O  0.61325677  0.50377379  0.59564176    -0.57100
O385        O  0.61224410  0.57751432  0.65970716    -0.55900
C386        C  0.71259926  0.53892404  0.62807632     0.77900
O387        O  0.67256426  0.61434010  0.67835461    -0.58300
O388        O  0.62789188  0.50821525  0.66060008    -0.56700
O389        O  0.71017445  0.63302798  0.58067998    -0.56700
O390        O  0.69548114  0.53888645  0.59469231    -0.55900
O391        O  0.71464585  0.67262227  0.88734897    -0.57100
C392        C  0.82691391  0.74274622  0.46980690     0.75500
O393        O  0.76040143  0.78509880  0.45741445    -0.58200
C394        C  0.69282936  0.68759766  0.87963093     0.75500
C395        C  0.70561586  0.65903740  0.51347319     0.77900
Cd396      Cd  0.74798883  0.71764056  0.44545615     1.37500
O397        O  0.81290843  0.72052869  0.93843014    -0.57100
O398        O  0.72276912  0.65246995  0.48463162    -0.55900
C399        C  0.79156916  0.80279185  0.43412176     0.77900
O400        O  0.70637559  0.69262510  0.51049631    -0.58300
O401        O  0.80165907  0.74337443  0.49316761    -0.56700
O402        O  0.69804716  0.71626182  0.90119744    -0.56700
O403        O  0.79500142  0.77912775  0.91283676    -0.55900
O404        O  0.64417793  0.63533219  0.83900465    -0.57100
C405        C  0.52635114  0.59189834  0.83545702     0.75500
O406        O  0.54607233  0.64735561  0.75359380    -0.58200
C407        C  0.66188913  0.67203075  0.84819505     0.75500
C408        C  0.62316445  0.61674606  0.71825251     0.77900
Cd409      Cd  0.59817869  0.64170505  0.78914872     1.37500
O410        O  0.55018788  0.62802168  0.84367674    -0.57100
O411        O  0.58982254  0.59424694  0.73626931    -0.55900
C412        C  0.55743167  0.68265271  0.76398092     0.77900
O413        O  0.64474153  0.65135463  0.73193680    -0.58300
O414        O  0.54024034  0.57510992  0.81428481    -0.56700
O415        O  0.65056304  0.69449262  0.83012695    -0.56700
O416        O  0.59321142  0.70340494  0.77412018    -0.55900
C417        C  0.68599171  0.36104289  0.69904125     0.03000
C418        C  0.71160160  0.38860593  0.66610925     0.03000
C419        C  0.74360792  0.38381980  0.65368921    -0.17500
C420        C  0.74629374  0.34968086  0.66928083     0.03000
C421        C  0.72001077  0.32479747  0.70288934     0.03000
C422        C  0.70342443  0.34346103  0.72407101    -0.17500
H423        H  0.69318653  0.33300667  0.75578835     0.05000
H424        H  0.76725277  0.40734298  0.63368614     0.05000
C425        C  0.61695309  0.33900667  0.66730875     0.03000
C426        C  0.64079816  0.33759037  0.69997692     0.03000
C427        C  0.62154804  0.30140819  0.72644460    -0.17500
C428        C  0.60306468  0.26459241  0.70692315     0.03000
C429        C  0.57583392  0.26388660  0.67719497     0.03000
C430        C  0.58349191  0.30156267  0.65745714    -0.17500
H431        H  0.56142721  0.30197720  0.63744864     0.05000
H432        H  0.63107318  0.30151657  0.75782323     0.05000
C433        C  0.70190900  0.25447702  0.67929726     0.03000
C434        C  0.69854246  0.27859836  0.70820331     0.03000
C435        C  0.66150788  0.25940287  0.72933259    -0.17500
C436        C  0.62777806  0.24364282  0.70468342     0.03000
C437        C  0.62932990  0.22060129  0.67210540     0.03000
C438        C  0.66640355  0.22516043  0.66176782    -0.17500
H439        H  0.66664269  0.20225284  0.64422232     0.05000
H440        H  0.65998702  0.26790857  0.76004205     0.05000
C441        C  0.96084331  0.92165858  0.50285439     0.03000
C442        C  0.94294753  0.93527392  0.47359803     0.03000
C443        C  0.95135069  0.97540027  0.47414591    -0.17500
C444        C  0.96898796  0.99827860  0.50895903     0.03000
C445        C  0.99038455  0.98541997  0.53528291     0.03000
C446        C  0.97379025  0.94270480  0.53918226    -0.17500
H447        H  0.98318838  0.92884969  0.56329310     0.05000
H448        H  0.93920211  0.98623836  0.44994291     0.05000
O449        O  0.41200187  0.09942606  0.70367290    -0.57100
C450        C  0.37430989  0.97851806  0.74252781     0.75500
O451        O  0.37607984  0.99015484  0.61446499    -0.58200
C452        C  0.42568831  0.12090635  0.66946089     0.75500
C453        C  0.48734983  0.07304885  0.65997776     0.77900
Cd454      Cd  0.40344280  0.03761739  0.67118194     1.37500
O455        O  0.40526751  0.98798885  0.72185108    -0.57100
O456        O  0.47023387  0.06988510  0.69422029    -0.55900
C457        C  0.34898092  0.99800423  0.60707235     0.77900
O458        O  0.46503952  0.05457147  0.63055626    -0.58300
O459        O  0.35619820  0.99665362  0.73090001    -0.56700
O460        O  0.41879880  0.10198779  0.63691205    -0.56700
O461        O  0.34717244  0.02279055  0.62949391    -0.55900
O462        O  0.32469687  0.92362834  0.78769455    -0.57100
C463        C  0.28621490  0.80179600  0.83583222     0.75500
O464        O  0.38239791  0.87156426  0.89055265    -0.58200
C465        C  0.36088303  0.94807061  0.77826894     0.75500
C466        C  0.30962808  0.91364130  0.91302677     0.77900
Cd467      Cd  0.33818968  0.88716423  0.84708026     1.37500
O468        O  0.29499134  0.82779221  0.80508089    -0.57100
O469        O  0.28728434  0.88258034  0.89386350    -0.55900
C470        C  0.39456705  0.86271543  0.85890563     0.77900
O471        O  0.34581887  0.93315030  0.90195467    -0.58300
O472        O  0.29630006  0.81615854  0.87093386    -0.56700
O473        O  0.38559587  0.94456821  0.80067572    -0.56700
O474        O  0.38945686  0.87578035  0.82373873    -0.55900
O475        O  0.30781514  0.00089965  0.55504054    -0.57100
C476        C  0.18069584  0.89508345  0.03703308     0.75500
O477        O  0.24288565  0.98995819  0.95921295    -0.58200
C478        C  0.32102650  0.98055294  0.57370217     0.75500
C479        C  0.29377933  0.92604744  0.94630869     0.77900
Cd480      Cd  0.26021353  0.94906256  0.01076130     1.37500
O481        O  0.20901801  0.90911200  0.56440709    -0.57100
O482        O  0.26334034  0.90025861  0.96769819    -0.55900
C483        C  0.23590099  0.00541312  0.48485661     0.77900
O484        O  0.30923661  0.96280169  0.95460287    -0.58300
O485        O  0.19312589  0.89558097  0.00082531    -0.56700
O486        O  0.30822219  0.94497511  0.56270994    -0.56700
O487        O  0.24158842  0.99724820  0.52195743    -0.55900
O488        O  0.95513233  0.27778367  0.71910594    -0.57100
C489        C  0.84160499  0.24219558  0.68235132     0.75500
O490        O  0.88303236  0.31411194  0.61495733    -0.58200
C491        C  0.97628249  0.31434580  0.72832242     0.75500
C492        C  0.95850913  0.27179046  0.59684955     0.77900
Cd493      Cd  0.92235424  0.29380273  0.65964047     1.37500
O494        O  0.86553496  0.26637666  0.70752662    -0.57100
O495        O  0.92628248  0.24670625  0.61572003    -0.55900
C496        C  0.88732990  0.34138130  0.63793011     0.77900
O497        O  0.97440316  0.30855498  0.60551502    -0.58300
O498        O  0.85666918  0.23288418  0.65383137    -0.56700
O499        O  0.97176331  0.34048645  0.70689023    -0.56700
O500        O  0.91743887  0.35552786  0.66033263    -0.55900
O501        O  0.03686673  0.33864373  0.89842816    -0.57100
C502        C  0.09863537  0.44006899  0.81348640     0.75500
O503        O  0.12875941  0.36633569  0.80315182    -0.58200
C504        C  0.02973938  0.30241091  0.89967903     0.75500
C505        C  0.00492791  0.32663056  0.76200154     0.77900
Cd506      Cd  0.06322543  0.35598855  0.82598246     1.37500
O507        O  0.07047976  0.42096145  0.84054073    -0.57100
O508        O  0.00973103  0.35417557  0.78502228    -0.55900
C509        C  0.14652740  0.38699849  0.83394718     0.77900
O510        O  0.02673885  0.31150626  0.76863818    -0.58300
O511        O  0.10237223  0.41913344  0.78721635    -0.56700
O512        O  0.03560037  0.29031463  0.86633871    -0.56700
O513        O  0.12456822  0.38536216  0.86323929    -0.55900
O514        O  0.96036711  0.15800372  0.98718066    -0.57100
C515        C  0.01815388  0.27644775  0.93856129     0.75500
O516        O  0.01279708  0.27277799  0.56219728    -0.58200
C517        C  0.95550709  0.14014588  0.02334047     0.75500
C518        C  0.05638209  0.19744388  0.01671933     0.77900
Cd519      Cd  0.00268218  0.22524698  0.01297031     1.37500
O520        O  0.99003242  0.23967529  0.94059370    -0.57100
O521        O  0.05615106  0.21854897  0.98497413    -0.55900
C522        C  0.97580926  0.25783442  0.56665027     0.77900
O523        O  0.04849720  0.20382457  0.54642954    -0.58300
O524        O  0.03766163  0.28950785  0.97115953    -0.56700
O525        O  0.96690123  0.16192276  0.55024916    -0.56700
O526        O  0.95365375  0.22871761  0.54481682    -0.55900
C527        C  0.07492969  0.98541335  0.02711611     0.03000
C528        C  0.09961547  0.01992170  0.99999776     0.03000
C529        C  0.09098363  0.05128684  0.99517382    -0.17500
C530        C  0.05639589  0.04676627  0.01378878     0.03000
C531        C  0.03192428  0.01107888  0.04033866     0.03000
C532        C  0.05122774  0.99036197  0.05564937    -0.17500
H533        H  0.04092988  0.96683240  0.57996251     0.05000
H534        H  0.11183789  0.07972060  0.97810903     0.05000
C535        C  0.31237218  0.64728622  0.87107243     0.03000
C536        C  0.28848036  0.65571362  0.84213267     0.03000
C537        C  0.25537150  0.62282199  0.82476600    -0.17500
C538        C  0.24822196  0.58331601  0.83037009     0.03000
C539        C  0.27445320  0.57675524  0.85381084     0.03000
C540        C  0.29415625  0.60501836  0.88386855    -0.17500
H541        H  0.30434918  0.59439858  0.91007067     0.05000
H542        H  0.23356332  0.62755397  0.80871510     0.05000
C543        C  0.42022400  0.68067458  0.82468135     0.03000
C544        C  0.39593055  0.64483094  0.84979232     0.03000
C545        C  0.37628508  0.64895509  0.88360562    -0.17500
C546        C  0.35822014  0.67257881  0.87579950     0.03000
C547        C  0.38555956  0.71165301  0.85551998     0.03000
C548        C  0.41659782  0.71495619  0.83003447    -0.17500
H549        H  0.43871954  0.74434306  0.81582569     0.05000
H550        H  0.36419359  0.62396101  0.90691337     0.05000
C551        C  0.37229569  0.56992054  0.84403732     0.03000
C552        C  0.37165619  0.60539480  0.83027851     0.03000
C553        C  0.33616361  0.60008950  0.81451418    -0.17500
C554        C  0.30063452  0.56656027  0.83088586     0.03000
C555        C  0.30028337  0.53026113  0.84154250     0.03000
C556        C  0.33657513  0.53206937  0.84652668    -0.17500
H557        H  0.33703870  0.50425565  0.85257336     0.05000
H558        H  0.33574811  0.62710376  0.80325930     0.05000
C559        C  0.06909609  0.10807532  0.04973027    -0.01100
C560        C  0.05481468  0.08457414  0.01483743     0.08600
C561        C  0.04736692  0.10147885  0.97824056    -0.01200
C562        C  0.05136868  0.14020973  0.97729010    -0.01200
C563        C  0.06342922  0.16295337  0.01326978     0.08700
C564        C  0.07408575  0.14721843  0.04863256    -0.01400
Br565      Br  0.10779463  0.18482204  0.58742932     0.00000
Br566      Br  0.09248588  0.09138982  0.59484598     0.00000
Br567      Br  0.03917537  0.16037055  0.92600775     0.00000
Br568      Br  0.03129948  0.07095117  0.92924528     0.00000
C569        C  0.20883044  0.42793356  0.87305629    -0.01100
C570        C  0.19004542  0.41664240  0.83437985     0.08600
C571        C  0.21076241  0.44063136  0.79761957    -0.01200
C572        C  0.24772626  0.47653453  0.80022266    -0.01200
C573        C  0.26329925  0.49033158  0.83937401     0.08700
C574        C  0.24445602  0.46530710  0.87567295    -0.01400
Br575      Br  0.26693531  0.48329463  0.92903934     0.00000
Br576      Br  0.18677372  0.39152756  0.92249438     0.00000
Br577      Br  0.27773682  0.50664045  0.74992168     0.00000
Br578      Br  0.18841629  0.42683372  0.74336784     0.00000
C579        C  0.14330805  0.49769948  0.85591386    -0.01100
C580        C  0.13049690  0.48300589  0.81614463     0.08600
C581        C  0.15520089  0.50478407  0.78059043    -0.01200
C582        C  0.19349768  0.53792983  0.78522998    -0.01200
C583        C  0.20763356  0.54924356  0.82522140     0.08700
C584        C  0.18193926  0.53009330  0.86043736    -0.01400
Br585      Br  0.19939034  0.54753243  0.91559804     0.00000
Br586      Br  0.10977791  0.47263468  0.90555059     0.00000
Br587      Br  0.22741085  0.56712131  0.73695611     0.00000
Br588      Br  0.13724665  0.48913613  0.72515287     0.00000
C589        C  0.14610255  0.01285923  0.95223608    -0.01100
C590        C  0.13961687  0.02820912  0.98790856     0.08600
C591        C  0.17499221  0.04920154  0.51300380    -0.01200
C592        C  0.20990912  0.04841522  0.50772012    -0.01200
C593        C  0.21292575  0.02611368  0.47633981     0.08700
C594        C  0.18176786  0.01313882  0.94688373    -0.01400
Br595      Br  0.19222040  0.99656549  0.89564791     0.00000
Br596      Br  0.10557439  0.98999101  0.91179468     0.00000
Br597      Br  0.25252436  0.07559281  0.54544159     0.00000
Br598      Br  0.16938181  0.07510534  0.55954150     0.00000
C599        C  0.37029225  0.79362745  0.84390064    -0.01100
C600        C  0.40041452  0.82787276  0.86099797     0.08600
C601        C  0.43013908  0.82359954  0.88140449    -0.01200
C602        C  0.42702179  0.78459260  0.88208694    -0.01200
C603        C  0.39060710  0.75030257  0.87000499     0.08700
C604        C  0.35971404  0.75720959  0.86676852    -0.01400
Br605      Br  0.33881472  0.75397343  0.92192395     0.00000
Br606      Br  0.37914756  0.79606339  0.78495458     0.00000
Br607      Br  0.46921693  0.77833381  0.90285141     0.00000
Br608      Br  0.47415388  0.86970111  0.90373401     0.00000
C609        C  0.26403613  0.69767212  0.87155233    -0.01100
C610        C  0.28472932  0.69226809  0.83941669     0.08600
C611        C  0.28948729  0.71355247  0.80021331    -0.01200
C612        C  0.28136610  0.74539021  0.79607805    -0.01200
C613        C  0.27103449  0.75773781  0.83178250     0.08700
C614        C  0.25781247  0.73075295  0.86803679    -0.01400
Br615      Br  0.23172165  0.73938777  0.91320340     0.00000
Br616      Br  0.24537320  0.66073997  0.92109703     0.00000
Br617      Br  0.28455053  0.77162510  0.74171418     0.00000
Br618      Br  0.30770461  0.69923353  0.75235165     0.00000
C619        C  0.96984562  0.08687118  0.55813805    -0.01100
C620        C  0.94661829  0.09758730  0.02929310     0.08600
C621        C  0.92368734  0.06937042  0.00059382    -0.01200
C622        C  0.92374226  0.03287085  0.00003759    -0.01200
C623        C  0.95226378  0.02773087  0.02299375     0.08700
C624        C  0.97137259  0.05111872  0.55629786    -0.01400
Br625      Br  0.98509488  0.03054195  0.60614267     0.00000
Br626      Br  0.99434563  0.12000032  0.60437837     0.00000
Br627      Br  0.87585689  0.98710743  0.98114253     0.00000
Br628      Br  0.88936995  0.07891935  0.96459756     0.00000
C629        C  0.57917980  0.16933292  0.62572819    -0.01100
C630        C  0.59595460  0.17915149  0.66526232     0.08600
C631        C  0.58624827  0.14693595  0.69598168    -0.01200
C632        C  0.55348014  0.10810720  0.69099536    -0.01200
C633        C  0.53078385  0.10108289  0.65515950     0.08700
C634        C  0.54695080  0.12982595  0.62042041    -0.01400
Br635      Br  0.52529384  0.11514909  0.56615365     0.00000
Br636      Br  0.59938630  0.21050437  0.57993126     0.00000
Br637      Br  0.53796776  0.06491404  0.73429700    -0.01800
Br638      Br  0.61596995  0.15598257  0.74616261     0.00000
C639        C  0.75048105  0.24015288  0.71897700    -0.01100
C640        C  0.73595032  0.24709543  0.68039254     0.08600
C641        C  0.75102438  0.24174706  0.64304398    -0.01200
C642        C  0.78228824  0.23391499  0.64396004    -0.01200
C643        C  0.79985994  0.23240580  0.68214401     0.08700
C644        C  0.78185195  0.23256494  0.71951176    -0.01400
Br645      Br  0.79949999  0.22027425  0.77179085     0.00000
Br646      Br  0.72771225  0.23899086  0.77235198     0.00000
Br647      Br  0.80101643  0.22630373  0.59195394     0.00000
Br648      Br  0.73041636  0.24660383  0.58954917     0.00000
C649        C  0.49993724  0.23199436  0.69078431    -0.01100
C650        C  0.53391212  0.22965870  0.67956361     0.08600
C651        C  0.52615065  0.19091122  0.67497123    -0.01200
C652        C  0.49332474  0.16895611  0.65103821    -0.01200
C653        C  0.45846412  0.16340752  0.66787040     0.08700
C654        C  0.46149015  0.19608935  0.68897443    -0.01400
Br655      Br  0.41517350  0.19202799  0.71270614     0.00000
Br656      Br  0.50540206  0.27972756  0.71281055     0.00000
Br657      Br  0.49881206  0.18471824  0.59251129     0.00000
Br658      Br  0.52248063  0.16494474  0.72975416     0.00000
C659        C  0.80871138  0.35248156  0.69300012    -0.01100
C660        C  0.78328528  0.34916105  0.66022189     0.08600
C661        C  0.79544469  0.34928065  0.61891257    -0.01200
C662        C  0.83057036  0.34904793  0.61100777    -0.01200
C663        C  0.85485022  0.35005357  0.64412238     0.08700
C664        C  0.84356346  0.35209086  0.68524372    -0.01400
Br665      Br  0.87347704  0.35103152  0.73289496     0.00000
Br666      Br  0.79800939  0.36069910  0.74899697     0.00000
Br667      Br  0.84535840  0.34760263  0.55443328     0.00000
Br668      Br  0.76410594  0.34977092  0.57270974     0.00000
C669        C  0.47000753  0.58301434  0.87960740    -0.01100
C670        C  0.48349008  0.57449313  0.84326286     0.08600
C671        C  0.45807705  0.56019825  0.80920928    -0.01200
C672        C  0.42220907  0.55959230  0.80961620    -0.01200
C673        C  0.40987621  0.57017201  0.84509171     0.08700
C674        C  0.43264826  0.57938480  0.88097829    -0.01400
Br675      Br  0.41257479  0.58680415  0.93184192     0.00000
Br676      Br  0.50326088  0.60106589  0.92711321     0.00000
Br677      Br  0.39084319  0.54653911  0.76027081     0.00000
Br678      Br  0.47317062  0.54495615  0.75972065     0.00000
C679        C  0.45941229  0.67835498  0.76406812    -0.01100
C680        C  0.45720923  0.68636460  0.80573981     0.08600
C681        C  0.49041468  0.69855450  0.83073555    -0.01200
C682        C  0.52602997  0.70494663  0.81388772    -0.01200
C683        C  0.52758926  0.69400102  0.77315288     0.08700
C684        C  0.49420602  0.68144996  0.74805575    -0.01400
Br685      Br  0.49587589  0.66747049  0.69201081     0.00000
Br686      Br  0.41347979  0.65926993  0.73045273     0.00000
Br687      Br  0.57115105  0.72471490  0.84935107     0.00000
Br688      Br  0.48562432  0.70008579  0.89011168     0.00000
C689        C  0.85252824  0.86395775  0.91243165    -0.01100
C690        C  0.82546933  0.84412182  0.44095744     0.08600
C691        C  0.83335988  0.85689511  0.48202726    -0.01200
C692        C  0.87140472  0.88738492  0.49200446    -0.01200
C693        C  0.90242266  0.90509640  0.46147362     0.08700
C694        C  0.89058864  0.89458907  0.92283767    -0.01400
Br695      Br  0.93218675  0.92213203  0.88076167     0.00000
Br696      Br  0.84158524  0.85225292  0.85485482     0.00000
Br697      Br  0.88024767  0.90458284  0.54830086     0.00000
Br698      Br  0.79373668  0.83148366  0.52672666     0.00000
C699        C  0.59545017  0.42412645  0.67701904    -0.01100
C700        C  0.60353199  0.44285019  0.63616440     0.08600
C701        C  0.61240504  0.42464360  0.60447015    -0.01200
C702        C  0.61585583  0.39021491  0.61458295    -0.01200
C703        C  0.61475775  0.37628222  0.65666024     0.08700
C704        C  0.60351759  0.39305478  0.68785692    -0.01400
Br705      Br  0.59739864  0.37335417  0.74582984     0.00000
Br706      Br  0.57110845  0.43978756  0.71792262     0.00000
Br707      Br  0.62103438  0.36145349  0.57055121     0.00000
Br708      Br  0.62131361  0.44679196  0.54725769     0.00000
C709        C  0.71839473  0.45397993  0.68866045    -0.01100
C710        C  0.71519037  0.42928927  0.65613273     0.08600
C711        C  0.72119261  0.44642909  0.61445430    -0.01200
C712        C  0.72552287  0.48505398  0.60541094    -0.01200
C713        C  0.72362001  0.50729409  0.63774009     0.08700
C714        C  0.72305878  0.49271876  0.67952121    -0.01400
Br715      Br  0.72927379  0.52545119  0.72535852     0.00000
Br716      Br  0.71887164  0.43692138  0.74663478     0.00000
Br717      Br  0.73584821  0.50804548  0.54824214     0.00000
Br718      Br  0.72316287  0.41739506  0.56874070     0.00000
C719        C  0.12206559  0.93658891  0.53466815    -0.01100
C720        C  0.08176248  0.90837084  0.05041402     0.08600
C721        C  0.07994346  0.87520989  0.07553805    -0.01200
C722        C  0.11323762  0.86977197  0.07421506    -0.01200
C723        C  0.14225306  0.89199581  0.04193416     0.08700
C724        C  0.14193568  0.92032489  0.51636938    -0.01400
Br725      Br  0.13254580  0.91000120  0.45887118     0.00000
Br726      Br  0.15113913  0.97076264  0.57831443     0.00000
Br727      Br  0.11759808  0.83183741  0.11245636     0.00000
Br728      Br  0.03646814  0.84255830  0.11413745     0.00000
C729        C  0.93641238  0.82123205  0.45452997    -0.01100
C730        C  0.94595013  0.83366314  0.49532193     0.08600
C731        C  0.91893756  0.81112951  0.52841098    -0.01200
C732        C  0.88155898  0.77768293  0.52049382    -0.01200
C733        C  0.86987292  0.76790992  0.47892993     0.08700
C734        C  0.89837333  0.78921319  0.44604924    -0.01400
Br735      Br  0.88558707  0.77793810  0.38858622     0.00000
Br736      Br  0.97582354  0.84876811  0.41003540     0.00000
Br737      Br  0.84688095  0.74533883  0.56730751     0.00000
Br738      Br  0.93043964  0.82371109  0.08732749     0.00000
loop_ 
_geom_bond_atom_site_label_1 
_geom_bond_atom_site_label_2 
_geom_bond_distance 
_geom_bond_site_symmetry_2 
_ccdc_geom_bond_type 
C1            C2   1.404   1_554  A
C1            C6   1.411   1_655  A
C1          C361   1.487   1_554  S
C2          C372   1.399   1_655  A
C2           C72   1.492   1_556  S
C3            C4   1.407       .  A
C3          C371   1.399   1_455  A
C3            H8   1.085       .  S
C4            C5   1.432       .  A
C4          C158   1.501       .  S
C5          C375   1.419       .  A
C5          C351   1.498       .  S
C6          C374   1.418       .  A
C6            H7   1.081       .  S
O9           C12   1.271       .  A
O9          Cd14   2.486       .  S
C10         C331   1.491       .  S
C10          O19   1.266       .  A
C10          O15   1.275       .  A
O11          C17   1.272       .  A
O11         Cd14   2.482       .  S
C12          C26   1.461       .  S
C12          O20   1.265       .  A
C13          C39   1.469       .  S
C13          O18   1.269       .  A
C13          O16   1.269       .  A
Cd14         O21   2.415       .  S
Cd14         O20   2.425       .  S
Cd14         O19   2.378       .  S
Cd14         O15   2.481       .  S
Cd14         O18   2.465       .  S
Cd14         O16   2.463       .  S
C17         C344   1.498       .  S
C17          O21   1.262       .  A
O22          C25   1.273       .  A
O22        Cd396   2.502       .  S
C23         C364   1.501       .  S
C23          O32   1.265       .  A
C23         O397   1.279       .  A
O24          C30   1.276       .  A
O24         Cd27   2.443       .  S
C25          C38   1.477       .  S
C25          O33   1.268       .  A
C26          O31   1.272       .  A
C26          O29   1.267   1_554  A
Cd27         O32   2.421       .  S
Cd27         O31   2.461   1_556  S
Cd27         O29   2.436       .  S
Cd27        O391   2.501       .  S
Cd27        O403   2.403       .  S
Cd27        O402   2.459       .  S
Cd27        O397   2.502       .  S
O28         C392   1.279       .  A
O28        Cd396   2.504       .  S
C30         C321   1.493       .  S
C30         O403   1.269       .  A
O33        Cd396   2.449       .  S
O34         C399   1.269       .  A
O34        Cd396   2.411       .  S
O35          C38   1.268       .  A
O35         Cd40   2.509       .  S
C36         C301   1.487       .  S
C36          O45   1.269       .  A
C36          O41   1.262       .  A
O37          C43   1.261       .  A
O37         Cd40   2.451       .  S
C38          O46   1.267       .  A
C39          O44   1.267       .  A
C39          O42   1.264       .  A
Cd40         O47   2.488       .  S
Cd40         O46   2.475       .  S
Cd40         O45   2.478       .  S
Cd40         O41   2.428       .  S
Cd40         O44   2.491       .  S
Cd40         O42   2.466       .  S
C43         C314   1.490       .  S
C43          O47   1.270       .  A
C48          C49   1.426       .  A
C48          C53   1.405       .  A
C48          C57   1.532       .  S
C49          C50   1.427       .  A
C49         C341   1.504       .  S
C50          C51   1.422       .  A
C50          H55   1.082       .  S
C51          C52   1.425       .  A
C51         C291   1.501       .  S
C52          C53   1.405       .  A
C52          C65   1.522       .  S
C53          H54   1.074       .  S
C56          C57   1.418       .  A
C56          C61   1.422       .  A
C56         C334   1.497       .  S
C57          C58   1.414       .  A
C58          C59   1.411       .  A
C58          H63   1.074       .  S
C59          C60   1.425       .  A
C59          C67   1.555       .  S
C60          C61   1.420       .  A
C60         C281   1.498       .  S
C61          H62   1.085       .  S
C64          C65   1.410       .  A
C64          C69   1.419       .  A
C64         C271   1.508       .  S
C65          C66   1.410       .  A
C66          C67   1.410       .  A
C66          H71   1.073       .  S
C67          C68   1.438       .  A
C68          C69   1.424       .  A
C68         C261   1.488       .  S
C69          H70   1.082       .  S
C72          C73   1.399   1_554  A
C72          C77   1.406       .  A
C73          C74   1.403       .  A
C73         C324   1.484       .  S
C74          C75   1.415   1_556  A
C74          H79   1.078       .  S
C75          C76   1.428       .  A
C75         C623   1.527   1_565  S
C76          C77   1.419       .  A
C76         C531   1.543   1_665  S
C77          H78   1.079       .  S
O80          C83   1.270       .  A
O80         Cd85   2.519       .  S
C81          C96   1.471       .  S
C81          O90   1.269       .  A
C81          O86   1.264       .  A
O82          C88   1.269       .  A
O82         Cd85   2.494   1_565  S
C83         C284   1.472       .  S
C83          O91   1.264       .  A
C84         C264   1.490       .  S
C84          O89   1.270       .  A
C84          O87   1.264       .  A
Cd85         O92   2.408       .  S
Cd85         O91   2.420       .  S
Cd85         O90   2.515   1_545  S
Cd85         O86   2.439   1_545  S
Cd85         O89   2.526       .  S
Cd85         O87   2.408       .  S
C88         C109   1.460       .  S
C88          O92   1.264   1_565  A
O93          C96   1.269       .  A
O93         Cd98   2.513       .  S
C94         C244   1.494       .  S
C94         O103   1.261       .  A
C94          O99   1.269       .  A
O95         C101   1.268       .  A
O95         Cd98   2.508       .  S
C96         O104   1.264       .  A
C97         C110   1.467       .  S
C97         O102   1.268       .  A
C97         O100   1.263       .  A
Cd98        O105   2.418       .  S
Cd98        O104   2.440       .  S
Cd98        O103   2.437       .  S
Cd98         O99   2.527       .  S
Cd98        O102   2.495       .  S
Cd98        O100   2.444       .  S
C101        C231   1.469       .  S
C101        O105   1.263       .  A
O106        C109   1.263   1_545  A
O106       Cd480   2.411   1_545  S
C107        C354   1.470       .  S
C107        O116   1.263       .  A
C107        O481   1.266       .  A
O108        C483   1.268   1_565  A
O108       Cd111   2.546       .  S
C109        O117   1.268       .  A
C110        O115   1.268       .  A
C110        O113   1.266       .  A
Cd111       O116   2.426       .  S
Cd111       O115   2.486       .  S
Cd111       O113   2.447       .  S
Cd111       O475   2.423   1_565  S
Cd111       O487   2.426       .  S
Cd111       O486   2.510       .  S
Cd111       O481   2.502       .  S
O112        C476   1.267       .  A
O112       Cd480   2.503       .  S
C114        C224   1.501       .  S
C114        O118   1.261   1_546  A
C114        O477   1.268   1_545  A
O117       Cd480   2.503       .  S
O118       Cd480   2.443       .  S
O119        C122   1.268       .  A
O119       Cd124   2.501       .  S
C120        C274   1.489       .  S
C120        O129   1.264       .  A
C120        O125   1.266       .  A
O121        C127   1.264       .  A
O121       Cd124   2.474       .  S
C122        C136   1.470   1_655  S
C122        O130   1.265       .  A
C123        C153   1.463       .  S
C123        O128   1.269       .  A
C123        O126   1.263       .  A
Cd124       O131   2.473       .  S
Cd124       O130   2.455       .  S
Cd124       O129   2.452       .  S
Cd124       O125   2.432       .  S
Cd124       O128   2.500       .  S
Cd124       O126   2.418       .  S
C127        C294   1.499       .  S
C127        O131   1.267       .  A
O132        C135   1.269       .  A
O132       Cd137   2.448       .  S
C133        C211   1.483       .  S
C133        O142   1.266       .  A
C133        O138   1.275       .  A
O134        C140   1.277       .  A
O134       Cd137   2.506       .  S
C135        C146   1.461       .  S
C135        O143   1.267       .  A
C136        O141   1.273       .  A
C136        O139   1.267       .  A
Cd137       O144   2.418       .  S
Cd137       O143   2.447       .  S
Cd137       O142   2.375       .  S
Cd137       O138   2.445       .  S
Cd137       O141   2.485       .  S
Cd137       O139   2.436       .  S
C140        C201   1.497       .  S
C140        O144   1.263       .  A
O145        C148   1.273       .  A
O145       Cd150   2.447   1_655  S
C146        O155   1.267       .  A
C146        O151   1.271   1_455  A
O147        C153   1.272   1_455  A
O147       Cd519   2.480       .  S
C148        C251   1.482       .  S
C148        O525   1.263       .  A
C149        C194   1.502       .  S
C149        O152   1.262       .  A
C149        O523   1.270       .  A
Cd150       O155   2.418       .  S
Cd150       O151   2.469   1_455  S
Cd150       O152   2.447       .  S
Cd150       O516   2.493       .  S
Cd150       O526   2.428   1_455  S
Cd150       O525   2.395   1_455  S
Cd150       O523   2.487       .  S
C153        O157   1.267       .  A
O154        C518   1.269       .  A
O154       Cd519   2.469       .  S
O156        C517   1.263       .  A
O156       Cd519   2.406   1_655  S
O157       Cd519   2.415   1_655  S
C158        C159   1.415   1_565  A
C158        C163   1.408       .  A
C159        C160   1.408       .  A
C159        C221   1.489       .  S
C160        C161   1.417       .  A
C160        H165   1.085       .  S
C161        C162   1.430       .  A
C161        C191   1.490       .  S
C162        C163   1.422   1_545  A
C162        C445   1.543   1_445  S
C163        H533   1.080       .  S
H164        C532   1.080       .  S
C166        C167   1.454       .  A
C166        C171   1.426       .  A
C166        C177   1.564       .  S
C167        C168   1.417       .  A
C167        C241   1.485       .  S
C168        C169   1.393       .  A
C168        H173   1.090       .  S
C169        C170   1.390       .  A
C169        C214   1.477       .  S
C170        C171   1.407       .  A
C170        C185   1.493       .  S
C171        H172   1.093       .  S
C174        C175   1.405       .  A
C174        C179   1.415       .  A
C174        C311   1.487       .  S
C175        C176   1.405       .  A
C175        C183   1.496       .  S
C176        C177   1.422       .  A
C176        H181   1.092       .  S
C177        C178   1.434       .  A
C178        C179   1.424       .  A
C178        C234   1.500       .  S
C179        H180   1.086       .  S
C182        C183   1.416       .  A
C182        C187   1.415       .  A
C182        C304   1.481       .  S
C183        C184   1.402       .  A
C184        C185   1.404       .  A
C184        H189   1.084       .  S
C185        C186   1.407       .  A
C186        C187   1.409       .  A
C186        C204   1.488       .  S
C187        H188   1.083       .  S
C190        C191   1.415       .  A
C190        C195   1.413       .  A
C190       Br566   1.930       .  S
C191        C192   1.406       .  A
C192        C193   1.412       .  A
C192       Br199   1.933       .  S
C193        C194   1.427       .  A
C193       Br198   1.934       .  S
C194        C195   1.412       .  A
C195       Br565   1.930       .  S
Br196       C564   1.931       .  S
Br197       C559   1.931       .  S
C200        C201   1.420       .  A
C200        C205   1.413       .  A
C200       Br207   1.930       .  S
C201        C202   1.419       .  A
C202        C203   1.411       .  A
C202       Br209   1.932       .  S
C203        C204   1.411       .  A
C203       Br208   1.933       .  S
C204        C205   1.405       .  A
C205       Br206   1.929       .  S
C210        C211   1.415       .  A
C210        C215   1.403       .  A
C210       Br217   1.937       .  S
C211        C212   1.417       .  A
C212        C213   1.407       .  A
C212       Br219   1.931       .  S
C213        C214   1.405       .  A
C213       Br218   1.931       .  S
C214        C215   1.414       .  A
C215       Br216   1.935       .  S
C220        C221   1.409       .  A
C220        C225   1.416       .  A
C220       Br227   1.925   1_545  S
C221        C591   1.411       .  A
C222        C223   1.411       .  A
C222        C590   1.411   1_554  A
C222       Br229   1.931       .  S
C223        C224   1.416   1_554  A
C223       Br228   1.933       .  S
C224        C594   1.416       .  A
C225        C593   1.415       .  A
C225       Br226   1.928   1_545  S
C230        C231   1.392       .  A
C230        C235   1.392       .  A
C230       Br237   1.919       .  S
C231        C232   1.416       .  A
C232        C233   1.437       .  A
C232       Br239   1.918       .  S
C233        C234   1.440       .  A
C233       Br238   1.912       .  S
C234        C235   1.378       .  A
C235       Br236   1.930       .  S
C240        C241   1.416       .  A
C240        C245   1.410       .  A
C240       Br247   1.931       .  S
C241        C242   1.416       .  A
C242        C243   1.414       .  A
C242       Br249   1.933       .  S
C243        C244   1.410       .  A
C243       Br248   1.928       .  S
C244        C245   1.410       .  A
C245       Br246   1.929       .  S
C250        C255   1.412       .  A
C250        C620   1.421       .  A
C250       Br257   1.934       .  S
C251        C252   1.402       .  A
C251        C619   1.422       .  A
C252        C253   1.403       .  A
C252       Br259   1.932       .  S
C253        C254   1.428       .  A
C253       Br258   1.938   1_545  S
C254        C624   1.417       .  A
C254        C444   1.524   1_545  S
C255        C623   1.416       .  A
C255       Br256   1.933       .  S
C260        C261   1.411       .  A
C260        C265   1.416       .  A
C260       Br267   1.927       .  S
C261        C262   1.417       .  A
C262        C263   1.407       .  A
C262       Br269   1.931       .  S
C263        C264   1.409       .  A
C263       Br268   1.931       .  S
C264        C265   1.413       .  A
C265       Br266   1.926       .  S
C270        C271   1.428       .  A
C270        C275   1.410       .  A
C270       Br277   1.935       .  S
C271        C272   1.418       .  A
C272        C273   1.412       .  A
C272       Br279   1.935       .  S
C273        C274   1.418       .  A
C273       Br278   1.936       .  S
C274        C275   1.405       .  A
C275       Br276   1.935       .  S
C280        C281   1.442       .  A
C280        C285   1.439       .  A
C280       Br287   1.922       .  S
C281        C282   1.380       .  A
C282        C283   1.392       .  A
C282       Br289   1.931       .  S
C283        C284   1.391       .  A
C283       Br288   1.916       .  S
C284        C285   1.419       .  A
C285       Br286   1.918       .  S
C290        C291   1.414       .  A
C290        C295   1.410       .  A
C290       Br297   1.937       .  S
C291        C292   1.417       .  A
C292        C293   1.417       .  A
C292       Br299   1.930       .  S
C293        C294   1.415       .  A
C293       Br298   1.930       .  S
C294        C295   1.421       .  A
C295       Br296   1.937       .  S
C300        C301   1.417       .  A
C300        C305   1.411       .  A
C300       Br307   1.929       .  S
C301        C302   1.419       .  A
C302        C303   1.406       .  A
C302       Br309   1.935       .  S
C303        C304   1.409       .  A
C303       Br308   1.936       .  S
C304        C305   1.406       .  A
C305       Br306   1.927       .  S
C310        C311   1.408       .  A
C310        C315   1.416       .  A
C310       Br317   1.928       .  S
C311        C312   1.409       .  A
C312        C313   1.405       .  A
C312       Br319   1.931       .  S
C313        C314   1.417       .  A
C313       Br318   1.937       .  S
C314        C315   1.418       .  A
C315       Br316   1.927       .  S
C320        C325   1.413       .  A
C320        C690   1.420       .  A
C320       Br327   1.929       .  S
C321        C322   1.416       .  A
C321        C689   1.419       .  A
C322        C323   1.406       .  A
C322       Br329   1.936   1_556  S
C323        C324   1.417       .  A
C323       Br328   1.938   1_556  S
C324        C694   1.403       .  A
C325        C693   1.405       .  A
C325       Br326   1.928       .  S
C330        C331   1.411       .  A
C330        C335   1.408       .  A
C330       Br337   1.937       .  S
C331        C332   1.418       .  A
C332        C333   1.413       .  A
C332       Br339   1.931       .  S
C333        C334   1.413       .  A
C333       Br338   1.932       .  S
C334        C335   1.421       .  A
C335       Br336   1.934       .  S
C340        C341   1.420       .  A
C340        C345   1.412       .  A
C340       Br347   1.937       .  S
C341        C342   1.418       .  A
C342        C343   1.412       .  A
C342       Br349   1.932       .  S
C343        C344   1.417       .  A
C343       Br348   1.936       .  S
C344        C345   1.418       .  A
C345       Br346   1.937       .  S
C350        C355   1.386       .  A
C350        C720   1.386       .  A
C350       Br357   1.925       .  S
C351        C352   1.432       .  A
C351        C719   1.387       .  A
C352        C353   1.435       .  A
C352       Br359   1.921       .  S
C353        C354   1.420       .  A
C353       Br358   1.918       .  S
C354        C724   1.398       .  A
C355        C723   1.399       .  A
C355       Br356   1.914   1_554  S
C360        C361   1.410       .  A
C360        C365   1.411       .  A
C360       Br367   1.934       .  S
C361        C362   1.405   1_556  A
C362        C363   1.413       .  A
C362       Br738   1.931       .  S
C363        C364   1.423   1_554  A
C363       Br368   1.931       .  S
C364        C365   1.420       .  A
C365       Br366   1.932       .  S
Br369       C731   1.931       .  S
C370        C371   1.403       .  A
C370        C375   1.410   1_655  A
C370        C730   1.485       .  S
C371        C441   1.491       .  S
C372        C373   1.407   1_556  A
C372        H377   1.085       .  S
C373        C374   1.431       .  A
C373        C527   1.500       .  S
C374        C720   1.497       .  S
C375        H376   1.080       .  S
O378        C381   1.272       .  A
O378       Cd383   2.493       .  S
C379        C700   1.492       .  S
C379        O388   1.265       .  A
C379        O384   1.275       .  A
O380        C386   1.272       .  A
O380       Cd383   2.476       .  S
C381        C395   1.464       .  S
C381        O389   1.265       .  A
C382        C408   1.470       .  S
C382        O387   1.269       .  A
C382        O385   1.269       .  A
Cd383       O390   2.420       .  S
Cd383       O389   2.425       .  S
Cd383       O388   2.373       .  S
Cd383       O384   2.494       .  S
Cd383       O387   2.467       .  S
Cd383       O385   2.467       .  S
C386        C713   1.501       .  S
C386        O390   1.264       .  A
O391        C394   1.273       .  A
C392        C733   1.500       .  S
C392        O401   1.266       .  A
O393        C399   1.277       .  A
O393       Cd396   2.438       .  S
C394        C407   1.479       .  S
C394        O402   1.268       .  A
C395        O400   1.273       .  A
C395        O398   1.267       .  A
Cd396       O401   2.415       .  S
Cd396       O400   2.485       .  S
Cd396       O398   2.426       .  S
C399        C690   1.493       .  S
O404        C407   1.269       .  A
O404       Cd409   2.507       .  S
C405        C670   1.485       .  S
C405        O414   1.270       .  A
C405        O410   1.261       .  A
O406        C412   1.261       .  A
O406       Cd409   2.444       .  S
C407        O415   1.267       .  A
C408        O413   1.266       .  A
C408        O411   1.264       .  A
Cd409       O416   2.493       .  S
Cd409       O415   2.481       .  S
Cd409       O414   2.488       .  S
Cd409       O410   2.422       .  S
Cd409       O413   2.487       .  S
Cd409       O411   2.477       .  S
C412        C683   1.490       .  S
C412        O416   1.270       .  A
C417        C418   1.427       .  A
C417        C422   1.404       .  A
C417        C426   1.533       .  S
C418        C419   1.433       .  A
C418        C710   1.508       .  S
C419        C420   1.427       .  A
C419        H424   1.082       .  S
C420        C421   1.422       .  A
C420        C660   1.504       .  S
C421        C422   1.403       .  A
C421        C434   1.523       .  S
C422        H423   1.073       .  S
C425        C426   1.422       .  A
C425        C430   1.423       .  A
C425        C703   1.496       .  S
C426        C427   1.415       .  A
C427        C428   1.409       .  A
C427        H432   1.074       .  S
C428        C429   1.424       .  A
C428        C436   1.557       .  S
C429        C430   1.421       .  A
C429        C650   1.496       .  S
C430        H431   1.085       .  S
C433        C434   1.411       .  A
C433        C438   1.418       .  A
C433        C640   1.510       .  S
C434        C435   1.411       .  A
C435        C436   1.411       .  A
C435        H440   1.074       .  S
C436        C437   1.440       .  A
C437        C438   1.424       .  A
C437        C630   1.489       .  S
C438        H439   1.082       .  S
C441        C442   1.399       .  A
C441        C446   1.406       .  A
C442        C443   1.403       .  A
C442        C693   1.487       .  S
C443        C444   1.417       .  A
C443        H448   1.079       .  S
C444        C445   1.426       .  A
C445        C446   1.418       .  A
C446        H447   1.078       .  S
O449        C452   1.270       .  A
O449       Cd454   2.523       .  S
C450        C465   1.470       .  S
C450        O459   1.268       .  A
C450        O455   1.264       .  A
O451        C457   1.269       .  A
O451       Cd454   2.496   1_565  S
C452        C653   1.473       .  S
C452        O460   1.264       .  A
C453        C633   1.489       .  S
C453        O458   1.270       .  A
C453        O456   1.264       .  A
Cd454       O461   2.412       .  S
Cd454       O460   2.409       .  S
Cd454       O459   2.509   1_545  S
Cd454       O455   2.451   1_545  S
Cd454       O458   2.525       .  S
Cd454       O456   2.406       .  S
C457        C478   1.463       .  S
C457        O461   1.265   1_565  A
O462        C465   1.270       .  A
O462       Cd467   2.505       .  S
C463        C613   1.494       .  S
C463        O472   1.261       .  A
C463        O468   1.270       .  A
O464        C470   1.268       .  A
O464       Cd467   2.506       .  S
C465        O473   1.265       .  A
C466        C479   1.468       .  S
C466        O471   1.268       .  A
C466        O469   1.264       .  A
Cd467       O474   2.418       .  S
Cd467       O473   2.443       .  S
Cd467       O472   2.426       .  S
Cd467       O468   2.518       .  S
Cd467       O471   2.492       .  S
Cd467       O469   2.450       .  S
C470        C600   1.468       .  S
C470        O474   1.262       .  A
O475        C478   1.262   1_545  A
C476        C723   1.471       .  S
C476        O485   1.264       .  A
O477       Cd480   2.532   1_556  S
C478        O486   1.267       .  A
C479        O484   1.267       .  A
C479        O482   1.266       .  A
Cd480       O485   2.418       .  S
Cd480       O484   2.487   1_554  S
Cd480       O482   2.461   1_554  S
C483        C593   1.496       .  S
C483        O487   1.261   1_545  A
O488        C491   1.269       .  A
O488       Cd493   2.515       .  S
C489        C643   1.493       .  S
C489        O498   1.265       .  A
C489        O494   1.266       .  A
O490        C496   1.264       .  A
O490       Cd493   2.477       .  S
C491        C505   1.476   1_655  S
C491        O499   1.266       .  A
C492        C522   1.470       .  S
C492        O497   1.269       .  A
C492        O495   1.263       .  A
Cd493       O500   2.479       .  S
Cd493       O499   2.465       .  S
Cd493       O498   2.466       .  S
Cd493       O494   2.438       .  S
Cd493       O497   2.515       .  S
Cd493       O495   2.438       .  S
C496        C663   1.500       .  S
C496        O500   1.267       .  A
O501        C504   1.269       .  A
O501       Cd506   2.466       .  S
C502        C580   1.485       .  S
C502        O511   1.266       .  A
C502        O507   1.276       .  A
O503        C509   1.277       .  A
O503       Cd506   2.519       .  S
C504        C515   1.463       .  S
C504        O512   1.267       .  A
C505        O510   1.273       .  A
C505        O508   1.267       .  A
Cd506       O513   2.432       .  S
Cd506       O512   2.449       .  S
Cd506       O511   2.369       .  S
Cd506       O507   2.442       .  S
Cd506       O510   2.503       .  S
Cd506       O508   2.453       .  S
C509        C570   1.500       .  S
C509        O513   1.264       .  A
O514        C517   1.273   1_556  A
O514       Cd519   2.451   1_656  S
C515        O524   1.268       .  A
C515        O520   1.271   1_455  A
O516        C522   1.273   1_455  A
C517        C620   1.485       .  S
C518        C563   1.499       .  S
C518        O521   1.262   1_554  A
Cd519       O524   2.429   1_554  S
Cd519       O520   2.462   1_454  S
Cd519       O521   2.443   1_554  S
C522        O526   1.267       .  A
C527        C528   1.415   1_564  A
C527        C532   1.407       .  A
C528        C529   1.410       .  A
C528        C590   1.494       .  S
C529        C530   1.420   1_556  A
C529        H534   1.085       .  S
C530        C531   1.429       .  A
C530        C560   1.489       .  S
C531        C532   1.421   1_545  A
C535        C536   1.455       .  A
C535        C540   1.429       .  A
C535        C546   1.569       .  S
C536        C537   1.418       .  A
C536        C610   1.483       .  S
C537        C538   1.393       .  A
C537        H542   1.087       .  S
C538        C539   1.391       .  A
C538        C583   1.479       .  S
C539        C540   1.409       .  A
C539        C554   1.496       .  S
C540        H541   1.074       .  S
C543        C544   1.406       .  A
C543        C548   1.419       .  A
C543        C680   1.492       .  S
C544        C545   1.406       .  A
C544        C552   1.498       .  S
C545        C546   1.424       .  A
C545        H550   1.072       .  S
C546        C547   1.437       .  A
C547        C548   1.428       .  A
C547        C603   1.502       .  S
C548        H549   1.083       .  S
C551        C552   1.417       .  A
C551        C556   1.413       .  A
C551        C673   1.480       .  S
C552        C553   1.405       .  A
C553        C554   1.406       .  A
C553        H558   1.084       .  S
C554        C555   1.407       .  A
C555        C556   1.408       .  A
C555        C573   1.487       .  S
C556        H557   1.083       .  S
C559        C560   1.415       .  A
C559        C564   1.412       .  A
C560        C561   1.407   1_554  A
C561        C562   1.412       .  A
C561       Br568   1.934       .  S
C562        C563   1.426   1_556  A
C562       Br567   1.935       .  S
C563        C564   1.412       .  A
C569        C570   1.419       .  A
C569        C574   1.413       .  A
C569       Br576   1.928       .  S
C570        C571   1.419       .  A
C571        C572   1.412       .  A
C571       Br578   1.930       .  S
C572        C573   1.411       .  A
C572       Br577   1.933       .  S
C573        C574   1.404       .  A
C574       Br575   1.929       .  S
C579        C580   1.417       .  A
C579        C584   1.406       .  A
C579       Br586   1.937       .  S
C580        C581   1.419       .  A
C581        C582   1.408       .  A
C581       Br588   1.932       .  S
C582        C583   1.404       .  A
C582       Br587   1.930       .  S
C583        C584   1.413       .  A
C584       Br585   1.934       .  S
C589        C590   1.409       .  A
C589        C594   1.416       .  A
C589       Br596   1.925   1_545  S
C591        C592   1.408       .  A
C591       Br598   1.929       .  S
C592        C593   1.413       .  A
C592       Br597   1.932       .  S
C594       Br595   1.929   1_545  S
C599        C600   1.391       .  A
C599        C604   1.393       .  A
C599       Br606   1.919       .  S
C600        C601   1.416       .  A
C601        C602   1.439       .  A
C601       Br608   1.917       .  S
C602        C603   1.441       .  A
C602       Br607   1.911       .  S
C603        C604   1.378       .  A
C604       Br605   1.934       .  S
C609        C610   1.415       .  A
C609        C614   1.411       .  A
C609       Br616   1.933       .  S
C610        C611   1.414       .  A
C611        C612   1.413       .  A
C611       Br618   1.933       .  S
C612        C613   1.412       .  A
C612       Br617   1.929       .  S
C613        C614   1.414       .  A
C614       Br615   1.932       .  S
C619        C624   1.411       .  A
C619       Br626   1.935       .  S
C620        C621   1.402       .  A
C621        C622   1.405       .  A
C621       Br628   1.933   1_554  S
C622        C623   1.431       .  A
C622       Br627   1.939   1_544  S
C624       Br625   1.933       .  S
C629        C630   1.412       .  A
C629        C634   1.417       .  A
C629       Br636   1.928       .  S
C630        C631   1.417       .  A
C631        C632   1.407       .  A
C631       Br638   1.931       .  S
C632        C633   1.408       .  A
C632       Br637   1.930       .  S
C633        C634   1.413       .  A
C634       Br635   1.927       .  S
C639        C640   1.428       .  A
C639        C644   1.411       .  A
C639       Br646   1.934       .  S
C640        C641   1.419       .  A
C641        C642   1.413       .  A
C641       Br648   1.935       .  S
C642        C643   1.418       .  A
C642       Br647   1.936       .  S
C643        C644   1.405       .  A
C644       Br645   1.935       .  S
C649        C650   1.442       .  A
C649        C654   1.441       .  A
C649       Br656   1.920       .  S
C650        C651   1.377       .  A
C651        C652   1.392       .  A
C651       Br658   1.933       .  S
C652        C653   1.391       .  A
C652       Br657   1.917       .  S
C653        C654   1.420       .  A
C654       Br655   1.917       .  S
C659        C660   1.416       .  A
C659        C664   1.410       .  A
C659       Br666   1.938       .  S
C660        C661   1.417       .  A
C661        C662   1.418       .  A
C661       Br668   1.931       .  S
C662        C663   1.416       .  A
C662       Br667   1.930       .  S
C663        C664   1.420       .  A
C664       Br665   1.938       .  S
C669        C670   1.415       .  A
C669        C674   1.411       .  A
C669       Br676   1.928       .  S
C670        C671   1.417       .  A
C671        C672   1.406       .  A
C671       Br678   1.934       .  S
C672        C673   1.409       .  A
C672       Br677   1.935       .  S
C673        C674   1.407       .  A
C674       Br675   1.926       .  S
C679        C680   1.410       .  A
C679        C684   1.417       .  A
C679       Br686   1.926       .  S
C680        C681   1.411       .  A
C681        C682   1.406       .  A
C681       Br688   1.929       .  S
C682        C683   1.415       .  A
C682       Br687   1.937       .  S
C683        C684   1.417       .  A
C684       Br685   1.928       .  S
C689        C694   1.411       .  A
C689       Br696   1.929       .  S
C690        C691   1.418       .  A
C691        C692   1.405       .  A
C691       Br698   1.938       .  S
C692        C693   1.417       .  A
C692       Br697   1.938       .  S
C694       Br695   1.928       .  S
C699        C700   1.410       .  A
C699        C704   1.407       .  A
C699       Br706   1.936       .  S
C700        C701   1.418       .  A
C701        C702   1.414       .  A
C701       Br708   1.930       .  S
C702        C703   1.414       .  A
C702       Br707   1.930       .  S
C703        C704   1.419       .  A
C704       Br705   1.933       .  S
C709        C710   1.423       .  A
C709        C714   1.413       .  A
C709       Br716   1.937       .  S
C710        C711   1.418       .  A
C711        C712   1.414       .  A
C711       Br718   1.932       .  S
C712        C713   1.417       .  A
C712       Br717   1.936       .  S
C713        C714   1.416       .  A
C714       Br715   1.937       .  S
C719        C724   1.385       .  A
C719       Br726   1.922       .  S
C720        C721   1.431       .  A
C721        C722   1.436       .  A
C721       Br728   1.920       .  S
C722        C723   1.421       .  A
C722       Br727   1.917       .  S
C724       Br725   1.912       .  S
C729        C730   1.409       .  A
C729        C734   1.411       .  A
C729       Br736   1.934       .  S
C730        C731   1.404       .  A
C731        C732   1.411       .  A
C732        C733   1.422       .  A
C732       Br737   1.930       .  S
C733        C734   1.420       .  A
C734       Br735   1.931       .  S
