geometry optimzed in LAMMPS
_audit_creation_date              2020-11-30 
_audit_creation_method            'lammps2cif' 
_symmetry_space_group_name_H-M    'P1' 
_symmetry_Int_Tables_number       1 
_symmetry_cell_setting            triclinic 
loop_ 
_symmetry_equiv_pos_as_xyz 
  x,y,z 
_cell_length_a                    57.35799850907598 
_cell_length_b                    57.053886603449754 
_cell_length_c                    29.44044251223988 
_cell_angle_alpha                 88.31812317074447 
_cell_angle_beta                  89.21480475340817 
_cell_angle_gamma                 90.41755795165268 
loop_ 
_atom_site_label 
_atom_site_type_symbol 
_atom_site_fract_x 
_atom_site_fract_y 
_atom_site_fract_z 
_atom_site_charge 
Zr1        Zr  0.46992137  0.57996852  0.16519420     2.17510
O2          O  0.48642927  0.56368577  0.09649140    -0.52110
O3          O  0.48837331  0.55021700  0.21252111    -0.75310
O4          O  0.50568397  0.60267067  0.17181294    -0.82100
O5          O  0.41324690  0.54472427  0.19102585    -0.83840
O6          O  0.51274427  0.63649584  0.13793626    -0.79460
O7          O  0.44950949  0.54365300  0.15903624    -0.91100
O8          O  0.47893369  0.56110418  0.28409735    -0.77060
O9          O  0.48391217  0.60860164  0.21522089    -0.86550
O10         O  0.44438546  0.57556840  0.22929518    -0.86240
O11         O  0.46631610  0.61700335  0.12503743    -0.73000
O12         O  0.43066533  0.58628368  0.14044682    -0.85130
Zr13       Zr  0.41614087  0.65002827  0.20980955     2.26420
Zr14       Zr  0.47847197  0.64674680  0.17821257     2.06270
Zr15       Zr  0.40577286  0.58518749  0.20689186     2.10050
Zr16       Zr  0.45987092  0.60213393  0.27971500     1.78760
O17         O  0.37352874  0.57296025  0.15995066    -0.93940
O18         O  0.49879380  0.61067051  0.30751246    -0.41750
O19         O  0.42101941  0.61401181  0.25515484    -0.78380
O20         O  0.45372689  0.64118498  0.24324402    -0.97070
O21         O  0.44096975  0.65262318  0.14597420    -0.90370
O22         O  0.40235417  0.62043670  0.16230737    -0.93210
C23         C  0.48748383  0.54598848  0.25555039     1.00540
C24         C  0.42993900  0.53423404  0.17070526     1.13470
C25         C  0.51498198  0.61457480  0.13882710     1.04250
O26         O  0.50897056  0.65598600  0.23172060    -0.95370
O27         O  0.47111450  0.68723199  0.19558825    -0.91110
O28         O  0.43220139  0.68911846  0.20746431    -0.84260
C29         C  0.45234251  0.69868960  0.20200292     1.10890
O30         O  0.44222686  0.59793802  0.03700870    -0.97340
Zr31       Zr  0.42790077  0.62227217  0.09798819     1.88940
O32         O  0.39307691  0.67024319  0.14774252    -0.73990
O33         O  0.48766123  0.67828799  0.12286405    -0.53250
O34         O  0.44567003  0.64729421  0.03841923    -0.97930
O35         O  0.39522839  0.60372890  0.06036561    -0.55150
O36         O  0.40105711  0.65320373  0.08081852    -0.74510
C37         C  0.39033326  0.66835934  0.10414453     0.97840
O38         O  0.40411848  0.67211365  0.27583533    -0.63330
O39         O  0.39182148  0.56248337  0.27335225    -0.58130
O40         O  0.37656019  0.64278821  0.22995407    -0.94810
O41         O  0.37286587  0.60367614  0.24549795    -0.93240
O42         O  0.43758660  0.58266588  0.34104520    -0.93590
O43         O  0.45822560  0.62332254  0.35029766    -0.92380
C44         C  0.36572878  0.62495958  0.24671634     1.16680
H45         H  0.44399977  0.55991152  0.24248646     0.32620
H46         H  0.45737222  0.65303679  0.26488845     0.43480
H47         H  0.38637258  0.62297468  0.15362185     0.37000
H48         H  0.47600385  0.61714157  0.09813661     0.33480
H49         H  0.49967557  0.60186501  0.33691707     0.25270
H50         H  0.50468057  0.67802490  0.11701916     0.31210
H51         H  0.43374853  0.64863255  0.01448530     0.37120
H52         H  0.44893546  0.57227864  0.35652571     0.31580
H53         H  0.38103281  0.55065795  0.26121308     0.30450
H54         H  0.36436288  0.56186806  0.17970223     0.32130
H55         H  0.39268368  0.61354660  0.03260933     0.31100
H56         H  0.44508726  0.63432203  0.34631177     0.35100
H57         H  0.39888297  0.66007469  0.29870561     0.27830
H58         H  0.49419519  0.54911634  0.10700595     0.32070
H59         H  0.43477439  0.60403396  0.00896744     0.34920
H60         H  0.40545933  0.55335675  0.28376688     0.27530
H61         H  0.41875798  0.67828791  0.28852302     0.40400
H62         H  0.51937573  0.64221715  0.23192444     0.30450
H63         H  0.50958684  0.60226778  0.28722577     0.38070
H64         H  0.38141343  0.60663053  0.07985838     0.29920
H65         H  0.48044519  0.67343156  0.09425115     0.29980
H66         H  0.47280152  0.55824701  0.07929019     0.30250
Zr67       Zr  0.45798909  0.91978861  0.20148974     2.17510
O68         O  0.46331093  0.94956453  0.25860295    -0.52110
O69         O  0.48484327  0.94500285  0.15807509    -0.75310
O70         O  0.48810304  0.91042537  0.25725535    -0.82100
O71         O  0.39376801  0.94412463  0.16898560    -0.83840
O72         O  0.49902324  0.87271905  0.24653347    -0.79460
O73         O  0.43096950  0.95132187  0.18389094    -0.91100
O74         O  0.47734301  0.93769887  0.08476047    -0.77060
O75         O  0.48001147  0.89342070  0.15697566    -0.86550
O76         O  0.43874243  0.92062385  0.12940732    -0.86240
O77         O  0.45378167  0.88213635  0.24035482    -0.73000
O78         O  0.41814513  0.90745637  0.21248075    -0.85130
Zr79       Zr  0.41681390  0.84318572  0.14244200     2.26420
Zr80       Zr  0.47425396  0.85510593  0.19251027     2.06270
Zr81       Zr  0.39937892  0.90626024  0.13958998     2.10050
Zr82       Zr  0.46131520  0.89562851  0.08555231     1.78760
O83         O  0.36100442  0.91540125  0.17052491    -0.93940
O84         O  0.50231987  0.89001901  0.06619950    -0.41750
O85         O  0.42194557  0.87942330  0.09764607    -0.78380
O86         O  0.45589852  0.85637258  0.12086138    -0.97070
O87         O  0.43537574  0.84349997  0.21303401    -0.90370
O88         O  0.39555461  0.87077119  0.18394581    -0.93210
C89         C  0.48470222  0.95157537  0.11611723     1.00540
C90         C  0.40935807  0.95283676  0.19359098     1.13470
C91         C  0.49985706  0.89192627  0.26749531     1.04250
O92         O  0.50443015  0.84954682  0.13491051    -0.95370
O93         O  0.46480353  0.81301535  0.19876858    -0.91110
O94         O  0.43761565  0.80715369  0.14588279    -0.84260
C95         C  0.45170302  0.79953167  0.17569465     1.10890
O96         O  0.41981199  0.89257361  0.32519495    -0.97340
Zr97       Zr  0.41458099  0.87181319  0.25499923     1.88940
O98         O  0.39074761  0.81985457  0.19827103    -0.73990
O99         O  0.50084812  0.82773177  0.23023655    -0.53250
O100        O  0.42993704  0.84561385  0.31413068    -0.97930
O101        O  0.37957340  0.89093820  0.28296144    -0.55150
O102        O  0.38785967  0.84005228  0.26325840    -0.74510
C103        C  0.38238631  0.82280669  0.23911731     0.97840
O104        O  0.41230557  0.82019669  0.07427719    -0.63330
O105        O  0.39478768  0.92815069  0.06802632    -0.58130
O106        O  0.37966528  0.84620541  0.10994662    -0.94810
O107        O  0.36930075  0.88440020  0.10117998    -0.93240
O108        O  0.44310303  0.91388805  0.01934541    -0.93590
O109        O  0.46697704  0.87454481  0.01555373    -0.92380
C110        C  0.36605793  0.86237262  0.09651759     1.16680
H111        H  0.43828379  0.93573458  0.11384797     0.32620
H112        H  0.46280257  0.84490544  0.10137513     0.43480
H113        H  0.37934463  0.86642637  0.18811149     0.37000
H114        H  0.45905854  0.88157649  0.27124094     0.33480
H115        H  0.50504155  0.89999091  0.03851058     0.25270
H116        H  0.51679225  0.83414630  0.22522858     0.31210
H117        H  0.41631014  0.84091713  0.33339746     0.37120
H118        H  0.45546626  0.92397770  0.00516073     0.31580
H119        H  0.37786406  0.93133830  0.06648197     0.30450
H120        H  0.35253623  0.92285659  0.14489830     0.32130
H121        H  0.37253522  0.87963971  0.30543399     0.31100
H122        H  0.45446711  0.86247884  0.01633534     0.35100
H123        H  0.40756268  0.83161254  0.05022353     0.27830
H124        H  0.48005926  0.95390488  0.25733043     0.32070
H125        H  0.41065691  0.88371145  0.34881170     0.34920
H126        H  0.40198240  0.94367057  0.07297558     0.27530
H127        H  0.42830083  0.81587251  0.06483284     0.40400
H128        H  0.51814338  0.85817566  0.14609167     0.30450
H129        H  0.51105987  0.89804839  0.09007145     0.38070
H130        H  0.36875367  0.89106984  0.25706040     0.29920
H131        H  0.49773743  0.82889206  0.26328101     0.29980
H132        H  0.46100738  0.94168998  0.28863616     0.30250
Zr133      Zr  0.05857192  0.91727099  0.64347825     2.17510
O134        O  0.06488450  0.94520212  0.57996556    -0.52110
O135        O  0.03206763  0.94444404  0.67691491    -0.75310
O136        O  0.02974638  0.91261339  0.58514505    -0.82100
O137        O  0.11624224  0.93790235  0.70588299    -0.83840
O138        O  0.00915949  0.88608221  0.62501628    -0.79460
O139        O  0.08983235  0.94608404  0.65058981    -0.91100
O140        O  0.02765191  0.93419676  0.75112859    -0.77060
O141        O  0.03063302  0.89230410  0.68205809    -0.86550
O142        O  0.07051322  0.91584956  0.72052668    -0.86240
O143        O  0.05945800  0.87970146  0.60696503    -0.73000
O144        O  0.09723297  0.90213951  0.64382851    -0.85130
Zr145      Zr  0.08425637  0.83687813  0.71849558     2.26420
Zr146      Zr  0.03303059  0.85386471  0.64986572     2.06270
Zr147      Zr  0.10816929  0.89776382  0.72224242     2.10050
Zr148      Zr  0.04217118  0.89217880  0.75845092     1.78760
O149        O  0.14827861  0.90460551  0.69670134    -0.93940
O150        O  0.00012025  0.88717011  0.76730930    -0.41750
O151        O  0.07983624  0.87296870  0.75890679    -0.78380
O152        O  0.04547202  0.85293515  0.72636307    -0.97070
O153        O  0.07173328  0.84001455  0.64305313    -0.90370
O154        O  0.11148607  0.86258178  0.68133030    -0.93210
C155        C  0.02564586  0.94921870  0.71721531     1.00540
C156        C  0.10809943  0.95070173  0.67394690     1.13470
C157        C  0.01351027  0.89722946  0.58783640     1.04250
O158        O  0.99650235  0.84125518  0.68635166    -0.95370
O159        O  0.03361239  0.81033034  0.65494459    -0.91110
O160        O  0.06397229  0.80163941  0.70069122    -0.84260
C161        C  0.04714447  0.79558149  0.67548936     1.10890
O162        O  0.09697280  0.88929514  0.53380564    -0.97340
Zr163      Zr  0.09824618  0.86624436  0.60483675     1.88940
O164        O  0.11676853  0.81545744  0.67800922    -0.73990
O165        O  0.02025910  0.83758072  0.57873925    -0.53250
O166        O  0.08639569  0.83998677  0.54535613    -0.97930
O167        O  0.13609478  0.88181673  0.57980424    -0.55150
O168        O  0.12296272  0.83302522  0.60854529    -0.74510
C169        C  0.12743247  0.81731291  0.63867990     0.97840
O170        O  0.07496229  0.80563114  0.77503146    -0.63330
O171        O  0.11249259  0.91479467  0.79657378    -0.58130
O172        O  0.10711504  0.84228593  0.78402152    -0.94810
O173        O  0.13233162  0.87191989  0.76828057    -0.93240
O174        O  0.05760184  0.90996067  0.82609119    -0.93590
O175        O  0.03091140  0.87199895  0.82948843    -0.92380
C176        C  0.12653806  0.85262432  0.78876525     1.16680
H177        H  0.07126629  0.93127070  0.73313189     0.32620
H178        H  0.03579724  0.84203361  0.74401348     0.43480
H179        H  0.12742149  0.85735285  0.68306336     0.37000
H180        H  0.05498809  0.88051109  0.57549937     0.33480
H181        H  0.99541076  0.89933385  0.78885702     0.25270
H182        H  0.00302360  0.83791623  0.58017845     0.31210
H183        H  0.10091867  0.83650020  0.52837405     0.37120
H184        H  0.04561328  0.92137216  0.83519435     0.31580
H185        H  0.12876262  0.92072168  0.79666863     0.30450
H186        H  0.15641953  0.91030159  0.72373338     0.32130
H187        H  0.14377762  0.86882750  0.56395851     0.31100
H188        H  0.04180421  0.85865355  0.83206706     0.35100
H189        H  0.08425664  0.80814600  0.80251930     0.27830
H190        H  0.04937363  0.95094596  0.57066792     0.32070
H191        H  0.10561173  0.88011296  0.51114492     0.34920
H192        H  0.10283492  0.92910303  0.79550092     0.27530
H193        H  0.05879558  0.80886990  0.78519011     0.40400
H194        H  0.98428281  0.84981117  0.66936377     0.30450
H195        H  0.99360737  0.89258306  0.73789090     0.38070
H196        H  0.14497873  0.88351127  0.60810836     0.29920
H197        H  0.02490260  0.84913297  0.55455631     0.29980
H198        H  0.07044295  0.93566383  0.55449678     0.30250
Zr199      Zr  0.03881770  0.57233329  0.70273500     2.17510
O200        O  0.03466704  0.55116205  0.77531055    -0.52110
O201        O  0.01922902  0.54410025  0.65824593    -0.75310
O202        O  0.99855029  0.57965742  0.72199698    -0.82100
O203        O  0.08966362  0.54166350  0.66816391    -0.83840
O204        O  0.99633445  0.61852672  0.73447210    -0.79460
O205        O  0.05967699  0.53619152  0.71525919    -0.91100
O206        O  0.02358859  0.55736522  0.58509904    -0.77060
O207        O  0.02092047  0.60063352  0.65380581    -0.86550
O208        O  0.06126884  0.57082296  0.63398505    -0.86240
O209        O  0.04153720  0.60918191  0.74041079    -0.73000
O210        O  0.07804830  0.58271905  0.72005141    -0.85130
Zr211      Zr  0.08707023  0.64686809  0.64378232     2.26420
Zr212      Zr  0.02574483  0.63815222  0.68802233     2.06270
Zr213      Zr  0.10043894  0.58198731  0.65127323     2.10050
Zr214      Zr  0.04276023  0.59790480  0.58561942     1.78760
O215        O  0.13306804  0.57361363  0.70111321    -0.93940
O216        O  0.00320985  0.60661667  0.56136803    -0.41750
O217        O  0.08210038  0.61064812  0.60338154    -0.78380
O218        O  0.04810241  0.63638599  0.61934352    -0.97070
O219        O  0.06436845  0.64732110  0.71098899    -0.90370
O220        O  0.10405142  0.61770268  0.69148633    -0.93210
C221        C  0.01687159  0.54158464  0.61566102     1.00540
C222        C  0.08154938  0.53560933  0.70712985     1.13470
C223        C  0.99030638  0.59718722  0.74291402     1.04250
O224        O  0.99370175  0.64730856  0.63733505    -0.95370
O225        O  0.03197682  0.68076567  0.67682136    -0.91110
O226        O  0.06909621  0.68483237  0.65108772    -0.84260
C227        C  0.04968064  0.69348500  0.66406641     1.10890
O228        O  0.06690609  0.59869657  0.82975524    -0.97340
Zr229      Zr  0.08076014  0.61811578  0.75941018     1.88940
O230        O  0.11632928  0.66539338  0.69644442    -0.73990
O231        O  0.01018669  0.66412231  0.74519165    -0.53250
O232        O  0.06755375  0.64650702  0.81435704    -0.97930
O233        O  0.11291221  0.59565490  0.79166121    -0.55150
O234        O  0.10953976  0.64826131  0.76539157    -0.74510
C235        C  0.12079336  0.66272976  0.73961560     0.97840
O236        O  0.09312431  0.67362296  0.57805524    -0.63330
O237        O  0.11859480  0.55756773  0.59442473    -0.58130
O238        O  0.12162995  0.63851192  0.60180489    -0.94810
O239        O  0.12933666  0.59952933  0.60011394    -0.93240
O240        O  0.06302431  0.57935950  0.52315449    -0.93590
O241        O  0.04249566  0.62027160  0.51391954    -0.92380
C242        C  0.13362677  0.62100089  0.58938534     1.16680
H243        H  0.06106832  0.55570047  0.62021430     0.32620
H244        H  0.04270194  0.64836594  0.59822388     0.43480
H245        H  0.12033638  0.62076632  0.69699592     0.37000
H246        H  0.03296624  0.60838789  0.76886920     0.33480
H247        H  0.00113196  0.59743729  0.53366850     0.25270
H248        H  0.99345748  0.66582754  0.73814882     0.31210
H249        H  0.08045541  0.64804307  0.83609624     0.37120
H250        H  0.05093243  0.56975193  0.50864064     0.31580
H251        H  0.12729529  0.54549159  0.61190344     0.30450
H252        H  0.14450154  0.56543249  0.68184221     0.32130
H253        H  0.11326342  0.59915710  0.82433158     0.31100
H254        H  0.05563029  0.63152194  0.51614825     0.35100
H255        H  0.09763744  0.66367133  0.55243527     0.27830
H256        H  0.02186073  0.53968544  0.77200631     0.32070
H257        H  0.07550360  0.60598222  0.85469812     0.34920
H258        H  0.10550719  0.54893403  0.58084818     0.27530
H259        H  0.07741158  0.67917423  0.56957344     0.40400
H260        H  0.98112679  0.63619141  0.64697691     0.30450
H261        H  0.99288527  0.59867660  0.58434515     0.38070
H262        H  0.12723097  0.60309142  0.77857356     0.29920
H263        H  0.01056954  0.65509904  0.77443206     0.29980
H264        H  0.02946293  0.56279365  0.79745130     0.30250
Zr265      Zr  0.22845288  0.76116851  0.86056564     2.17510
O266        O  0.21222245  0.78839710  0.80457807    -0.52110
O267        O  0.20137796  0.73394396  0.82686619    -0.75310
O268        O  0.25156957  0.75778371  0.79083920    -0.82100
O269        O  0.18765646  0.79789905  0.94494730    -0.83840
O270        O  0.28640459  0.74091020  0.80763849    -0.79460
O271        O  0.19897066  0.79025351  0.87253250    -0.91100
O272        O  0.20116387  0.70277556  0.87576601    -0.77060
O273        O  0.24824135  0.72535073  0.87635514    -0.86550
O274        O  0.20786558  0.74543644  0.92570993    -0.86240
O275        O  0.26865744  0.77147577  0.87141500    -0.73000
O276        O  0.23112793  0.78825596  0.92020956    -0.85130
Zr277      Zr  0.27113516  0.74942684  0.01360384     2.26420
Zr278      Zr  0.28835639  0.73541303  0.89250426     2.06270
Zr279      Zr  0.21238309  0.77202450  0.98779147     2.10050
Zr280      Zr  0.22729284  0.70977716  0.94041806     1.78760
O281        O  0.20838177  0.80730824  0.03190189    -0.93940
O282        O  0.24026773  0.67237894  0.91185784    -0.41750
O283        O  0.23199539  0.73621232  0.00222881    -0.78380
O284        O  0.26726757  0.71976123  0.95730710    -0.97070
O285        O  0.29098253  0.76499660  0.94798759    -0.90370
O286        O  0.25154130  0.78474947  0.99654896    -0.93210
C287        C  0.19410460  0.71345605  0.83913727     1.00540
C288        C  0.18647792  0.80079159  0.90190592     1.13470
C289        C  0.27170127  0.75002443  0.77897511     1.04250
O290        O  0.29612353  0.69616569  0.86608116    -0.95370
O291        O  0.31720721  0.71849109  0.95046373    -0.91110
O292        O  0.30913034  0.73384141  0.01913380    -0.84260
C293        C  0.32136875  0.72091581  0.99376183     1.10890
O294        O  0.26057070  0.82636109  0.86528035    -0.97340
Zr295      Zr  0.27022302  0.79975201  0.92849566     1.88940
O296        O  0.29600088  0.78076726  0.04167444    -0.73990
O297        O  0.32674664  0.74943238  0.86747072    -0.53250
O298        O  0.30736573  0.80944731  0.89111455    -0.97930
O299        O  0.25822287  0.83869358  0.95103225    -0.55150
O300        O  0.29452305  0.81034942  0.98828021    -0.74510
C301        C  0.30171684  0.80117449  0.02523478     0.97840
O302        O  0.27426340  0.71693393  0.06879700    -0.63330
O303        O  0.17241236  0.75976496  0.00543985    -0.58130
O304        O  0.25156242  0.76048924  0.08266164    -0.94810
O305        O  0.21329071  0.75766902  0.06818648    -0.93240
O306        O  0.18977018  0.70194962  0.97777327    -0.93590
O307        O  0.22952269  0.67808134  0.99732764    -0.92380
C308        C  0.23055857  0.75613987  0.09567949     1.16680
H309        H  0.19158797  0.74295065  0.91924591     0.32620
H310        H  0.27471891  0.70557249  0.96804585     0.43480
H311        H  0.25265064  0.79566534  0.02092326     0.37000
H312        H  0.27572082  0.77902394  0.84484580     0.33480
H313        H  0.22572987  0.66326044  0.90771127     0.25270
H314        H  0.33194373  0.73800047  0.84485275     0.31210
H315        H  0.31153621  0.82514902  0.90210882     0.37120
H316        H  0.18256146  0.68939391  0.96004143     0.31580
H317        H  0.16555666  0.77312128  0.02156050     0.30450
H318        H  0.19528210  0.80382467  0.05334014     0.32130
H319        H  0.27283223  0.84804529  0.95155449     0.31100
H320        H  0.24080963  0.68374898  0.01972230     0.35100
H321        H  0.25789106  0.71225523  0.07548634     0.27830
H322        H  0.21135218  0.77980642  0.77600522     0.32070
H323        H  0.27366918  0.83773447  0.86250126     0.34920
H324        H  0.16437823  0.75977615  0.97590057     0.27530
H325        H  0.28045356  0.70360003  0.05170263     0.40400
H326        H  0.28468887  0.69380001  0.84171303     0.30450
H327        H  0.24596587  0.67607796  0.88056073     0.38070
H328        H  0.25342270  0.83676007  0.98335513     0.29920
H329        H  0.32368544  0.76396523  0.84939290     0.29980
H330        H  0.22432545  0.80072716  0.79971796     0.30250
Zr331      Zr  0.23599478  0.72510710  0.51519413     2.17510
O332        O  0.23811815  0.69867274  0.58174609    -0.52110
O333        O  0.20594887  0.74951359  0.54702907    -0.75310
O334        O  0.25866734  0.73967186  0.57683820    -0.82100
O335        O  0.19296446  0.68474321  0.45207737    -0.83840
O336        O  0.29420871  0.75294776  0.55130608    -0.79460
O337        O  0.20782156  0.69387034  0.52043330    -0.91100
O338        O  0.20413241  0.78074258  0.49764600    -0.77060
O339        O  0.25356989  0.76112648  0.48993281    -0.86550
O340        O  0.21183796  0.73738149  0.45357299    -0.86240
O341        O  0.27579095  0.71677663  0.49708573    -0.73000
O342        O  0.23689445  0.69565708  0.45979666    -0.85130
Zr343      Zr  0.27238033  0.73253874  0.35306586     2.26420
Zr344      Zr  0.29305170  0.75263353  0.46662541     2.06270
Zr345      Zr  0.21465714  0.70867851  0.39537778     2.10050
Zr346      Zr  0.22927081  0.77332117  0.42954357     1.78760
O347        O  0.20913025  0.67166390  0.35751533    -0.93940
O348        O  0.24139765  0.81197885  0.45352638    -0.41750
O349        O  0.23317484  0.74453700  0.37138517    -0.78380
O350        O  0.26878978  0.76455362  0.40479793    -0.97070
O351        O  0.29511119  0.72059006  0.41616419    -0.90370
O352        O  0.25400611  0.69737396  0.38016130    -0.93210
C353        C  0.19779111  0.76951001  0.53476350     1.00540
C354        C  0.19425940  0.68203792  0.49557620     1.13470
C355        C  0.27917172  0.74777791  0.58337544     1.04250
O356        O  0.30183875  0.79303992  0.48495503    -0.95370
O357        O  0.31832749  0.76924109  0.40204353    -0.91110
O358        O  0.30908682  0.75142970  0.33639986    -0.84260
C359        C  0.32141528  0.76562814  0.35883591     1.10890
O360        O  0.26752613  0.66171884  0.51312319    -0.97340
Zr361      Zr  0.27604835  0.68582616  0.44503450     1.88940
O362        O  0.29695646  0.70064654  0.32526567    -0.73990
O363        O  0.33211362  0.73955772  0.48566431    -0.53250
O364        O  0.31372939  0.67845270  0.47953466    -0.97930
O365        O  0.26471196  0.64559857  0.42928203    -0.55150
O366        O  0.29866348  0.67320978  0.38257231    -0.74510
C367        C  0.30388965  0.68098060  0.34277244     0.97840
O368        O  0.27212793  0.75912236  0.28647848    -0.63330
O369        O  0.17380330  0.71825549  0.38351314    -0.58130
O370        O  0.24983441  0.71378837  0.29664567    -0.94810
O371        O  0.21284239  0.72097405  0.31326778    -0.93240
O372        O  0.19105107  0.77832873  0.39570530    -0.93590
O373        O  0.22952812  0.80336518  0.36906790    -0.92380
C374        C  0.22969822  0.71981719  0.28397393     1.16680
H375        H  0.19576792  0.73918373  0.46292526     0.32620
H376        H  0.27513697  0.77863296  0.39026277     0.43480
H377        H  0.25443565  0.68507648  0.35829855     0.37000
H378        H  0.28391188  0.71141755  0.52391355     0.33480
H379        H  0.22670200  0.82085023  0.45646180     0.25270
H380        H  0.33855266  0.75218029  0.50428154     0.31210
H381        H  0.31668377  0.66162837  0.47468343     0.37120
H382        H  0.18354069  0.79075395  0.41342115     0.31580
H383        H  0.16681784  0.70375520  0.37174290     0.30450
H384        H  0.19281573  0.66695861  0.36469090     0.32130
H385        H  0.27948960  0.63673890  0.42858103     0.31100
H386        H  0.23625935  0.79550174  0.34241882     0.35100
H387        H  0.25544114  0.76161534  0.27992517     0.27830
H388        H  0.23427435  0.70800341  0.60864500     0.32070
H389        H  0.28015887  0.65002355  0.51516673     0.34920
H390        H  0.16691145  0.71955969  0.41432974     0.27530
H391        H  0.27735960  0.77450120  0.29749262     0.40400
H392        H  0.28918108  0.79746767  0.50616257     0.30450
H393        H  0.24660867  0.80945373  0.48519866     0.38070
H394        H  0.25944064  0.64606082  0.39738724     0.29920
H395        H  0.32960594  0.72616213  0.50737160     0.29980
H396        H  0.25478377  0.69461551  0.58494277     0.30250
Zr397      Zr  0.58569025  0.94889192  0.40880993     2.17510
O398        O  0.55820758  0.95203433  0.34643553    -0.52110
O399        O  0.55662914  0.97154829  0.44849508    -0.75310
O400        O  0.55623172  0.91828219  0.40915773    -0.82100
O401        O  0.62878097  0.99275377  0.34988093    -0.83840
O402        O  0.56860079  0.88350586  0.43924620    -0.79460
O403        O  0.59228935  0.97714249  0.34915399    -0.91100
O404        O  0.56909211  0.97146309  0.52113709    -0.77060
O405        O  0.58679773  0.93136903  0.48220447    -0.86550
O406        O  0.61028144  0.97521103  0.44829710    -0.86240
O407        O  0.60165056  0.91109263  0.39585170    -0.73000
O408        O  0.62285368  0.95086683  0.37086526    -0.85130
Zr409      Zr  0.66651629  0.91752699  0.46840742     2.26420
Zr410      Zr  0.60496714  0.89431431  0.47103926     2.06270
Zr411      Zr  0.64877042  0.97456364  0.41324375     2.10050
Zr412      Zr  0.61105830  0.95719435  0.52146060     1.78760
O413        O  0.66902460  0.00334224  0.36387781    -0.93940
O414        O  0.59434310  0.93795655  0.58943823    -0.41750
O415        O  0.65009830  0.95561208  0.48603330    -0.78380
O416        O  0.63006022  0.91971298  0.51153998    -0.97070
O417        O  0.64047558  0.89414810  0.42746578    -0.90370
O418        O  0.66381896  0.93669309  0.39635697    -0.93210
C419        C  0.55333679  0.97576649  0.49053691     1.00540
C420        C  0.60851308  0.99034545  0.33271277     1.13470
C421        C  0.55420623  0.89616382  0.41724420     1.04250
O422        O  0.57765582  0.88444721  0.53286045    -0.95370
O423        O  0.62523034  0.87177508  0.52691442    -0.91110
O424        O  0.66319081  0.88233178  0.51462768    -0.84260
C425        C  0.64701754  0.86963615  0.53314809     1.10890
O426        O  0.61049098  0.91742621  0.29184297    -0.97340
Zr427      Zr  0.63748738  0.91355483  0.35497459     1.88940
O428        O  0.68809027  0.88844563  0.41951975    -0.73990
O429        O  0.60991208  0.85373832  0.44926874    -0.53250
O430        O  0.62898137  0.87537572  0.32381677    -0.97930
O431        O  0.65804443  0.93389626  0.29204794    -0.55150
O432        O  0.67144938  0.88994702  0.35022063    -0.74510
C433        C  0.68682911  0.88212072  0.37737407     0.97840
O434        O  0.69287647  0.91863427  0.53288365    -0.63330
O435        O  0.64886893  0.00723308  0.46461608    -0.58130
O436        O  0.70218257  0.93988983  0.45489876    -0.94810
O437        O  0.69191368  0.97317832  0.41614541    -0.93240
O438        O  0.61573248  0.99857204  0.53756839    -0.93590
O439        O  0.63167062  0.96418432  0.59157946    -0.92380
C440        C  0.70722386  0.95916250  0.43339263     1.16680
H441        H  0.60386285  0.99081508  0.44857034     0.32620
H442        H  0.63254395  0.91363262  0.54201090     0.43480
H443        H  0.67853975  0.93721623  0.38013395     0.37000
H444        H  0.59205421  0.90204205  0.37623121     0.33480
H445        H  0.58496710  0.95023767  0.60399143     0.25270
H446        H  0.59430258  0.84634640  0.45274789     0.31210
H447        H  0.63848492  0.87475390  0.29553528     0.37120
H448        H  0.60166160  0.00250707  0.55555755     0.31580
H449        H  0.66557765  0.01088297  0.46902031     0.30450
H450        H  0.67357991  0.01622562  0.38380762     0.32130
H451        H  0.65861407  0.92247280  0.26741557     0.31100
H452        H  0.64578207  0.95435130  0.58958533     0.35100
H453        H  0.69467815  0.93547484  0.53943796     0.27830
H454        H  0.54239735  0.95195340  0.36038343     0.32070
H455        H  0.61835659  0.91049189  0.26534690     0.34920
H456        H  0.64292662  0.02068699  0.44632166     0.27530
H457        H  0.68380612  0.91227453  0.55937435     0.40400
H458        H  0.56419485  0.89495285  0.52800452     0.30450
H459        H  0.58263107  0.92686041  0.57793810     0.38070
H460        H  0.67443444  0.93535679  0.30167586     0.29920
H461        H  0.61296927  0.85459764  0.41609174     0.29980
H462        H  0.55931994  0.93714874  0.33006061     0.30250
Zr463      Zr  0.92687951  0.94251594  0.44574934     2.17510
O464        O  0.95735267  0.94817528  0.50132882    -0.52110
O465        O  0.95620246  0.96494928  0.40343824    -0.75310
O466        O  0.95412027  0.91042977  0.45383091    -0.82100
O467        O  0.88589651  0.98963114  0.49046509    -0.83840
O468        O  0.94256113  0.87588595  0.42476053    -0.79460
O469        O  0.91880727  0.96919095  0.50594589    -0.91100
O470        O  0.94537700  0.96409510  0.32982498    -0.77060
O471        O  0.92602392  0.92302745  0.37596902    -0.86550
O472        O  0.90464531  0.96842526  0.39824157    -0.86240
O473        O  0.90910182  0.90521194  0.46441480    -0.73000
O474        O  0.88920343  0.94654674  0.47969944    -0.85130
Zr475      Zr  0.84603270  0.91251551  0.38630137     2.26420
Zr476      Zr  0.90602647  0.88661749  0.39232461     2.06270
Zr477      Zr  0.86567376  0.97010588  0.43052859     2.10050
Zr478      Zr  0.90394235  0.94846813  0.32897592     1.78760
O479        O  0.84555579  0.99999941  0.47328860    -0.93940
O480        O  0.92387011  0.92758142  0.26895269    -0.41750
O481        O  0.86447195  0.94941686  0.36182756    -0.78380
O482        O  0.88305671  0.91175877  0.34489683    -0.97070
O483        O  0.87013035  0.88932564  0.43370013    -0.90370
O484        O  0.84833005  0.93335206  0.45449413    -0.93210
C485        C  0.96037543  0.96878001  0.36110712     1.00540
C486        C  0.90355731  0.98470473  0.51518948     1.13470
C487        C  0.95665520  0.88855645  0.44655461     1.04250
O488        O  0.93198432  0.87639376  0.32998581    -0.95370
O489        O  0.88332103  0.86149068  0.34505559    -0.91110
O490        O  0.84677797  0.87664508  0.34707370    -0.84260
C491        C  0.86167293  0.86137922  0.33539196     1.10890
O492        O  0.89496004  0.92096968  0.56855187    -0.97340
Zr493      Zr  0.87264559  0.91027881  0.50227911     1.88940
O494        O  0.82478102  0.88237108  0.43656255    -0.73990
O495        O  0.90205964  0.84667238  0.42298103    -0.53250
O496        O  0.88499546  0.87749452  0.55070558    -0.97930
O497        O  0.84467885  0.92791694  0.55416637    -0.55150
O498        O  0.84219968  0.88169594  0.50537927    -0.74510
C499        C  0.82734227  0.87390090  0.47773161     0.97840
O500        O  0.82073332  0.91400130  0.32014194    -0.63330
O501        O  0.86797581  0.00154836  0.37288553    -0.58130
O502        O  0.81100620  0.93574599  0.39484490    -0.94810
O503        O  0.82267717  0.97025386  0.42415836    -0.93240
O504        O  0.89951153  0.98876126  0.30108167    -0.93590
O505        O  0.88502187  0.95168005  0.25552907    -0.92380
C506        C  0.80679301  0.95606619  0.41045914     1.16680
H507        H  0.91180283  0.98377081  0.39497303     0.32620
H508        H  0.88074272  0.90468302  0.31588285     0.43480
H509        H  0.83340320  0.93485482  0.46952622     0.37000
H510        H  0.91792847  0.89607537  0.48605586     0.33480
H511        H  0.93062261  0.94007170  0.24862378     0.25270
H512        H  0.91608567  0.83838184  0.41215894     0.31210
H513        H  0.87327470  0.87654139  0.57572713     0.37120
H514        H  0.91363625  0.99200184  0.28216104     0.31580
H515        H  0.85155067  0.00585146  0.36722791     0.30450
H516        H  0.84379778  0.01350865  0.45178405     0.32130
H517        H  0.84846216  0.92121009  0.58454575     0.31100
H518        H  0.87040281  0.94248065  0.25967043     0.35100
H519        H  0.81976273  0.93083901  0.31125041     0.27830
H520        H  0.95601574  0.93478332  0.52346198     0.32070
H521        H  0.89222237  0.93794876  0.57194677     0.34920
H522        H  0.87460701  0.01507936  0.38872875     0.27530
H523        H  0.82995255  0.90726484  0.29508259     0.40400
H524        H  0.92247718  0.87836030  0.30233988     0.30450
H525        H  0.93756698  0.92043888  0.28388383     0.38070
H526        H  0.82940383  0.92077959  0.54718232     0.29920
H527        H  0.90425597  0.84807385  0.45604902     0.29980
H528        H  0.97248039  0.94613424  0.48539338     0.30250
Zr529      Zr  0.59055196  0.52328495  0.96628096     2.17510
O530        O  0.55836564  0.50107319  0.00288450    -0.52110
O531        O  0.56420719  0.50584818  0.91365414    -0.75310
O532        O  0.55891089  0.54589791  0.99431495    -0.82100
O533        O  0.64199553  0.49144001  0.01668702    -0.83840
O534        O  0.56068697  0.58167584  0.95888992    -0.79460
O535        O  0.60297460  0.48862532  0.01020203    -0.91100
O536        O  0.57348768  0.52012884  0.84357071    -0.77060
O537        O  0.58796655  0.55090971  0.90461712    -0.86550
O538        O  0.61773359  0.50874874  0.91259267    -0.86240
O539        O  0.60102741  0.56104057  0.99700248    -0.73000
O540        O  0.62788070  0.52562603  0.99996276    -0.85130
Zr541      Zr  0.66491062  0.57538135  0.91998093     2.26420
Zr542      Zr  0.60055137  0.58808145  0.93256255     2.06270
Zr543      Zr  0.65577347  0.51124835  0.94742965     2.10050
Zr544      Zr  0.61469515  0.53651560  0.85110389     1.78760
O545        O  0.67946428  0.47774778  0.97064811    -0.93940
O546        O  0.59734874  0.56161715  0.79258551    -0.41750
O547        O  0.65351477  0.53889043  0.88547318    -0.78380
O548        O  0.62828771  0.57408197  0.87883237    -0.97070
O549        O  0.63662383  0.58880731  0.97202335    -0.90370
O550        O  0.66591030  0.54779189  0.98110892    -0.93210
C551        C  0.55950153  0.50869921  0.87169025     1.00540
C552        C  0.62183925  0.48534596  0.03229192     1.13470
C553        C  0.55232082  0.56706594  0.98891742     1.04250
O554        O  0.57886708  0.60342613  0.86783535    -0.95370
O555        O  0.62105207  0.62404029  0.90550095    -0.91110
O556        O  0.65970749  0.61562550  0.89983877    -0.84260
C557        C  0.64252582  0.62959593  0.89678910     1.10890
O558        O  0.61920023  0.54184897  0.09994977    -0.97340
Zr559      Zr  0.63752883  0.56133788  0.03380001     1.88940
O560        O  0.68363958  0.60017514  0.97933655    -0.73990
O561        O  0.58885994  0.62054603  0.97959766    -0.53250
O562        O  0.61604747  0.59055652  0.07602501    -0.97930
O563        O  0.66566345  0.54502928  0.08737027    -0.55150
O564        O  0.66463280  0.59253652  0.04631764    -0.74510
C565        C  0.67978847  0.60385226  0.02219633     0.97840
O566        O  0.68799405  0.58590913  0.85214358    -0.63330
O567        O  0.65620725  0.48399005  0.88510464    -0.58130
O568        O  0.70332047  0.55814406  0.92222277    -0.94810
O569        O  0.69786159  0.51992413  0.94404244    -0.93240
O570        O  0.62169761  0.49897566  0.81618736    -0.93590
O571        O  0.63727883  0.53988616  0.78055180    -0.92380
C572        C  0.71091968  0.53784691  0.93411555     1.16680
H573        H  0.61345381  0.49302868  0.90444805     0.32620
H574        H  0.62930188  0.58503816  0.85322233     0.43480
H575        H  0.68066010  0.54760689  0.99636701     0.37000
H576        H  0.59110477  0.56621697  0.02125278     0.33480
H577        H  0.59135652  0.55063759  0.76997826     0.25270
H578        H  0.57430028  0.62653172  0.96594449     0.31210
H579        H  0.62650339  0.59497816  0.10090478     0.37120
H580        H  0.60792880  0.49638888  0.79699111     0.31580
H581        H  0.67291595  0.48092072  0.87907054     0.30450
H582        H  0.66905557  0.46385616  0.96969931     0.32130
H583        H  0.66366642  0.55423968  0.11512716     0.31100
H584        H  0.64964467  0.55151369  0.78676820     0.35100
H585        H  0.69196259  0.57074558  0.83855914     0.27830
H586        H  0.55977874  0.48470160  0.99298905     0.32070
H587        H  0.62127388  0.55242137  0.12566641     0.34920
H588        H  0.64989312  0.46900604  0.89807128     0.27530
H589        H  0.67674875  0.59302534  0.83066493     0.40400
H590        H  0.56420859  0.59414674  0.86813947     0.30450
H591        H  0.58314056  0.56785517  0.80717428     0.38070
H592        H  0.68113967  0.55004570  0.07531019     0.29920
H593        H  0.58388448  0.61317968  0.00905276     0.29980
H594        H  0.56118152  0.50016539  0.03585581     0.30250
Zr595      Zr  0.93161415  0.53974515  0.91381635     2.17510
O596        O  0.95408641  0.53536888  0.84392048    -0.52110
O597        O  0.95792200  0.51383442  0.95488233    -0.75310
O598        O  0.96196147  0.56533449  0.94333102    -0.82100
O599        O  0.87934753  0.51324443  0.85831804    -0.83840
O600        O  0.95919895  0.60339389  0.94877552    -0.79460
O601        O  0.91836719  0.50826174  0.86494645    -0.91100
O602        O  0.94889472  0.52251602  0.02772276    -0.77060
O603        O  0.93233008  0.56063177  0.98274950    -0.86550
O604        O  0.90485802  0.51838812  0.96237038    -0.86240
O605        O  0.92016900  0.57988448  0.89817758    -0.73000
O606        O  0.89384781  0.54384677  0.88401845    -0.85130
Zr607      Zr  0.85486182  0.58232979  0.97584974     2.26420
Zr608      Zr  0.91862081  0.60008988  0.96994749     2.06270
Zr609      Zr  0.86632453  0.52347475  0.93167980     2.10050
Zr610      Zr  0.90731446  0.53875594  0.03116529     1.78760
O611        O  0.84628956  0.49121799  0.89539830    -0.93940
O612        O  0.92688713  0.55665291  0.09448633    -0.41750
O613        O  0.86784287  0.54359637  0.00058309    -0.78380
O614        O  0.89152226  0.57811569  0.01682401    -0.97070
O615        O  0.88288731  0.60257742  0.92950603    -0.90370
O616        O  0.85515516  0.56209581  0.90757193    -0.93210
C617        C  0.96290711  0.51371711  0.99726598     1.00540
C618        C  0.89868979  0.50476664  0.84569485     1.13470
C619        C  0.96736900  0.58592019  0.92831128     1.04250
O620        O  0.93872588  0.60805405  0.04022542    -0.95370
O621        O  0.89711403  0.63056866  0.00818370    -0.91110
O622        O  0.85876568  0.62160866  0.99937612    -0.84260
C623        C  0.87527323  0.63493263  0.01174505     1.10890
O624        O  0.90938729  0.57695727  0.79485736    -0.97340
Zr625      Zr  0.88396118  0.58195929  0.86075556     1.88940
O626        O  0.83271327  0.60814246  0.92086944    -0.73990
O627        O  0.92373291  0.63847718  0.93239637    -0.53250
O628        O  0.89988319  0.61864927  0.82902336    -0.97930
O629        O  0.86209886  0.56427398  0.79981835    -0.55150
O630        O  0.85216206  0.60796436  0.85322372    -0.74510
C631        C  0.83578999  0.61508621  0.87875587     0.97840
O632        O  0.83272619  0.58742556  0.04612860    -0.63330
O633        O  0.86705658  0.48939543  0.98361606    -0.58130
O634        O  0.81703551  0.56296531  0.97270831    -0.94810
O635        O  0.82425256  0.52871514  0.93822966    -0.93240
O636        O  0.90002161  0.49806576  0.05490834    -0.93590
O637        O  0.88697643  0.53391707  0.10401097    -0.92380
C638        C  0.81036803  0.54395493  0.95447663     1.16680
H639        H  0.90936155  0.50214744  0.96559810     0.32620
H640        H  0.88991226  0.58564901  0.04565424     0.43480
H641        H  0.84033924  0.56260729  0.89242654     0.37000
H642        H  0.93072460  0.58737503  0.87685987     0.33480
H643        H  0.93239589  0.54324699  0.11348721     0.25270
H644        H  0.93995908  0.64345658  0.93816820     0.31210
H645        H  0.89204479  0.62105079  0.79951223     0.37120
H646        H  0.91566057  0.49144188  0.06051582     0.31580
H647        H  0.85057656  0.48653653  0.99270940     0.30450
H648        H  0.83337615  0.48626006  0.91625213     0.32130
H649        H  0.85157160  0.57672403  0.78839323     0.31100
H650        H  0.87405354  0.54530981  0.10229948     0.35100
H651        H  0.82963194  0.57128437  0.05809054     0.27830
H652        H  0.95892711  0.51876086  0.84300836     0.32070
H653        H  0.90084107  0.58344794  0.76839591     0.34920
H654        H  0.87125517  0.47598920  0.96459081     0.27530
H655        H  0.84408456  0.59387666  0.06759788     0.40400
H656        H  0.95369540  0.59960860  0.03799641     0.30450
H657        H  0.94134431  0.56354201  0.08091462     0.38070
H658        H  0.85162481  0.55253699  0.81504577     0.29920
H659        H  0.92322463  0.63554154  0.89948382     0.29980
H660        H  0.94300078  0.53760587  0.81871327     0.30250
Zr661      Zr  0.73735244  0.76069461  0.61353521     2.17510
O662        O  0.71382958  0.76104350  0.54510695    -0.52110
O663        O  0.76250244  0.79035339  0.57728724    -0.75310
O664        O  0.71076625  0.79254259  0.61229036    -0.82100
O665        O  0.76354323  0.70341343  0.57370950    -0.83840
O666        O  0.70042301  0.80582297  0.68122706    -0.79460
O667        O  0.74529313  0.73673060  0.54924408    -0.91100
O668        O  0.79282316  0.79488737  0.62480598    -0.77060
O669        O  0.75042661  0.78476023  0.67277279    -0.86550
O670        O  0.77395171  0.74435698  0.63317805    -0.86240
O671        O  0.70767234  0.75799715  0.67202465    -0.73000
O672        O  0.72980867  0.72043515  0.63396145    -0.85130
Zr673      Zr  0.74784172  0.72511434  0.77659665     2.26420
Zr674      Zr  0.72191454  0.78100231  0.73361729     2.06270
Zr675      Zr  0.76620459  0.70447602  0.65854296     2.10050
Zr676      Zr  0.78683018  0.76831983  0.69216845     1.78760
O677        O  0.75411819  0.66487506  0.64049866    -0.93940
O678        O  0.79438510  0.80686305  0.72271169    -0.41750
O679        O  0.77855835  0.72858275  0.71931320    -0.78380
O680        O  0.75866659  0.76453765  0.75320321    -0.97070
O681        O  0.71192906  0.74150720  0.75418071    -0.90370
O682        O  0.73606525  0.70105378  0.71596696    -0.93210
C683        C  0.78172760  0.80015742  0.58801608     1.00540
C684        C  0.75481948  0.71693592  0.54209626     1.13470
C685        C  0.69899050  0.80587963  0.63787595     1.04250
O686        O  0.73044821  0.82214238  0.74631162    -0.95370
O687        O  0.72941563  0.78522180  0.81575453    -0.91110
O688        O  0.74217467  0.74961269  0.84113794    -0.84260
C689        C  0.73665003  0.77098095  0.84734044     1.10890
O690        O  0.67756455  0.72414623  0.62355217    -0.97340
Zr691      Zr  0.70055766  0.71816088  0.69187170     1.88940
O692        O  0.71449663  0.70326758  0.81150177    -0.73990
O693        O  0.68342217  0.78288652  0.76919225    -0.53250
O694        O  0.65808109  0.71796299  0.69431281    -0.97930
O695        O  0.69863508  0.67634228  0.67760101    -0.55150
O696        O  0.68399288  0.70915040  0.76504272    -0.74510
C697        C  0.69274054  0.70114767  0.80182692     0.97840
O698        O  0.77321373  0.72318462  0.84259305    -0.63330
O699        O  0.80640180  0.69762717  0.63504837    -0.58130
O700        O  0.76630113  0.68806234  0.78777009    -0.94810
O701        O  0.78348008  0.67925463  0.72029584    -0.93240
O702        O  0.82370984  0.75513125  0.66025476    -0.93590
O703        O  0.81682484  0.76726062  0.75011448    -0.92380
C704        C  0.77994515  0.67586926  0.76368886     1.16680
H705        H  0.78464689  0.74509997  0.60754996     0.32620
H706        H  0.76563609  0.77257367  0.77804573     0.43480
H707        H  0.73377676  0.68498591  0.72639131     0.37000
H708        H  0.69264087  0.76338492  0.66198994     0.33480
H709        H  0.80833403  0.81286393  0.70580802     0.25270
H710        H  0.68122163  0.79970019  0.77531169     0.31210
H711        H  0.65355595  0.70117380  0.69425549     0.37120
H712        H  0.83168737  0.76964667  0.64892769     0.31580
H713        H  0.80598395  0.68222881  0.62042289     0.30450
H714        H  0.76881160  0.65671638  0.63319016     0.32130
H715        H  0.68759502  0.67501006  0.65223477     0.31100
H716        H  0.82983408  0.77713204  0.73777552     0.35100
H717        H  0.78887133  0.71905388  0.83086813     0.27830
H718        H  0.71757449  0.77606249  0.52883498     0.32070
H719        H  0.68464220  0.71367646  0.60105308     0.34920
H720        H  0.80944657  0.70906932  0.60969454     0.27530
H721        H  0.76794314  0.70941614  0.86140873     0.40400
H722        H  0.74570396  0.82209922  0.76163175     0.30450
H723        H  0.78149149  0.81675906  0.71130140     0.38070
H724        H  0.69012453  0.66944522  0.70432558     0.29920
H725        H  0.67243038  0.77962300  0.74446599     0.29980
H726        H  0.69740902  0.76239477  0.55546318     0.30250
Zr727      Zr  0.77064087  0.76272860  0.26599266     2.17510
O728        O  0.80290438  0.76458619  0.31878722    -0.52110
O729        O  0.74483106  0.78984580  0.30288469    -0.75310
O730        O  0.78370863  0.80245796  0.24712467    -0.82100
O731        O  0.74665639  0.70524067  0.31767695    -0.83840
O732        O  0.80717197  0.80353386  0.18560147    -0.79460
O733        O  0.76380267  0.73999829  0.33593178    -0.91100
O734        O  0.71849612  0.79710205  0.24761456    -0.77060
O735        O  0.75737772  0.78354048  0.20014325    -0.86550
O736        O  0.73402973  0.74456608  0.25167732    -0.86240
O737        O  0.79952194  0.75889063  0.20721505    -0.73000
O738        O  0.77731142  0.72217916  0.25372022    -0.85130
Zr739      Zr  0.75963576  0.72088108  0.11111473     2.26420
Zr740      Zr  0.78486383  0.77816190  0.13868238     2.06270
Zr741      Zr  0.74106313  0.70427070  0.23362874     2.10050
Zr742      Zr  0.72068697  0.76645739  0.18823140     1.78760
O743        O  0.75114730  0.66522027  0.26214946    -0.93940
O744        O  0.71247566  0.80254805  0.14516330    -0.41750
O745        O  0.72883797  0.72623539  0.16768976    -0.78380
O746        O  0.74760358  0.76048299  0.12630965    -0.97070
O747        O  0.79576587  0.73832456  0.12839178    -0.90370
O748        O  0.77134461  0.69999967  0.17803614    -0.93210
C749        C  0.72790794  0.80170859  0.28629692     1.00540
C750        C  0.75536836  0.71958086  0.34657660     1.13470
C751        C  0.80250633  0.80904726  0.22639698     1.04250
O752        O  0.78037925  0.81925564  0.11607648    -0.95370
O753        O  0.77334385  0.78186282  0.05782450    -0.91110
O754        O  0.75812814  0.74614354  0.04325792    -0.84260
C755        C  0.76310287  0.76742002  0.03148932     1.10890
O756        O  0.83610895  0.72823624  0.25451911    -0.97340
Zr757      Zr  0.80703271  0.71871643  0.19797710     1.88940
O758        O  0.79639663  0.70238006  0.08480806    -0.73990
O759        O  0.82231035  0.77627498  0.09900430    -0.53250
O760        O  0.84423204  0.72681033  0.15932965    -0.97930
O761        O  0.81650110  0.68557133  0.24828446    -0.55150
O762        O  0.81255407  0.68786549  0.14840217    -0.74510
C763        C  0.81147913  0.68945247  0.10565541     0.97840
O764        O  0.74412319  0.70185566  0.04441033    -0.63330
O765        O  0.70052718  0.70038833  0.25849817    -0.58130
O766        O  0.73689668  0.68580636  0.10772616    -0.94810
O767        O  0.72448051  0.67518903  0.17911494    -0.93240
O768        O  0.68517287  0.75418540  0.22885795    -0.93590
O769        O  0.68763020  0.76365378  0.13742645    -0.92380
C770        C  0.72574162  0.67220019  0.13542941     1.16680
H771        H  0.72358441  0.74577888  0.27748186     0.32620
H772        H  0.73929499  0.76779159  0.10159388     0.43480
H773        H  0.77304779  0.68348079  0.17261910     0.37000
H774        H  0.81423368  0.76539183  0.21648788     0.33480
H775        H  0.70312666  0.81213103  0.16605437     0.25270
H776        H  0.82431388  0.79195513  0.08410670     0.31210
H777        H  0.85289291  0.71187405  0.16150324     0.37120
H778        H  0.67959049  0.76849796  0.24366063     0.31580
H779        H  0.69809109  0.68332028  0.26370749     0.30450
H780        H  0.73650428  0.65886905  0.27597451     0.32130
H781        H  0.83133223  0.67941883  0.23604616     0.31100
H782        H  0.67569511  0.77440635  0.14937206     0.35100
H783        H  0.73125798  0.71172836  0.03282897     0.27830
H784        H  0.79783411  0.77530859  0.34274681     0.32070
H785        H  0.85014481  0.71905309  0.24695753     0.34920
H786        H  0.70011029  0.70689912  0.28930215     0.27530
H787        H  0.75654546  0.70312099  0.02072535     0.40400
H788        H  0.77014414  0.82578744  0.13983016     0.30450
H789        H  0.72769509  0.81080705  0.14244971     0.38070
H790        H  0.80472264  0.67342055  0.24163182     0.29920
H791        H  0.83398137  0.77591643  0.12349305     0.29980
H792        H  0.81574253  0.77282754  0.30202337     0.30250
Zr793      Zr  0.55263187  0.41965801  0.17813165     2.17510
O794        O  0.55745628  0.44186832  0.10670455    -0.52110
O795        O  0.53095674  0.44842229  0.21968939    -0.75310
O796        O  0.51679223  0.42034330  0.13781854    -0.82100
O797        O  0.61374448  0.43976691  0.21692234    -0.83840
O798        O  0.50619348  0.38195465  0.13744084    -0.79460
O799        O  0.58005371  0.45146939  0.18408832    -0.91100
O800        O  0.52813528  0.43269192  0.29133149    -0.77060
O801        O  0.52758161  0.39318497  0.22013271    -0.86550
O802        O  0.56994999  0.41661888  0.25030931    -0.86240
O803        O  0.55207752  0.38375084  0.13719395    -0.73000
O804        O  0.59105861  0.40584565  0.16398746    -0.85130
Zr805      Zr  0.58632209  0.33742655  0.23335920     2.26420
Zr806      Zr  0.52956824  0.35613914  0.18376360     2.06270
Zr807      Zr  0.60728540  0.39984304  0.23742097     2.10050
Zr808      Zr  0.54509234  0.39095738  0.29191431     1.78760
O809        O  0.64646782  0.40117264  0.20445593    -0.93940
O810        O  0.50434494  0.38377873  0.31277708    -0.41750
O811        O  0.58261662  0.37260228  0.27765595    -0.78380
O812        O  0.54803954  0.35261550  0.25529632    -0.97070
O813        O  0.56748866  0.34268430  0.16328978    -0.90370
O814        O  0.60972976  0.36547736  0.19290791    -0.93210
C815        C  0.52472926  0.44979204  0.26144416     1.00540
C816        C  0.60129232  0.45470196  0.19568525     1.13470
C817        C  0.50429389  0.40344213  0.12408717     1.04250
O818        O  0.49900186  0.34775558  0.24030242    -0.95370
O819        O  0.53401580  0.31369735  0.17376539    -0.91110
O820        O  0.56434040  0.30245956  0.21774396    -0.84260
C821        C  0.54755516  0.29802315  0.19107267     1.10890
O822        O  0.58918108  0.39754261  0.05581634    -0.97340
Zr823      Zr  0.59061345  0.37077352  0.12183849     1.88940
O824        O  0.61473948  0.31665457  0.18052975    -0.73990
O825        O  0.50191719  0.33515653  0.13708914    -0.53250
O826        O  0.57058494  0.35030979  0.06203054    -0.97930
O827        O  0.62814628  0.38325655  0.08937782    -0.55150
O828        O  0.61340391  0.33601391  0.11245447    -0.74510
C829        C  0.62051477  0.31895061  0.13751102     0.97840
O830        O  0.58481343  0.30398470  0.28693279    -0.63330
O831        O  0.61924061  0.42129238  0.30381089    -0.58130
O832        O  0.61624091  0.34077211  0.28934360    -0.94810
O833        O  0.62827222  0.37865960  0.29334071    -0.93240
O834        O  0.56520236  0.40767771  0.35583058    -0.93590
O835        O  0.54000691  0.36908207  0.36371117    -0.92380
C836        C  0.62838752  0.35722499  0.30614610     1.16680
H837        H  0.57131289  0.43156828  0.26461456     0.32620
H838        H  0.54013286  0.34083210  0.27419316     0.43480
H839        H  0.62567542  0.36043049  0.18952619     0.37000
H840        H  0.54526001  0.38619259  0.10767555     0.33480
H841        H  0.50152419  0.39367328  0.33935424     0.25270
H842        H  0.48629725  0.34119292  0.14509181     0.31210
H843        H  0.57980208  0.35389409  0.03398741     0.37120
H844        H  0.55443725  0.41970238  0.36730861     0.31580
H845        H  0.63424879  0.42893634  0.29497316     0.30450
H846        H  0.65632972  0.40762013  0.22851313     0.32130
H847        H  0.63096150  0.37275407  0.06370025     0.31100
H848        H  0.55107847  0.35590441  0.36164615     0.35100
H849        H  0.57915631  0.31043096  0.31586837     0.27830
H850        H  0.55553699  0.45853652  0.11432987     0.32070
H851        H  0.57240805  0.40010548  0.05014020     0.34920
H852        H  0.60808340  0.43435414  0.30645658     0.27530
H853        H  0.60114685  0.29932655  0.29247136     0.40400
H854        H  0.48550411  0.35700403  0.22959029     0.30450
H855        H  0.49536184  0.39146976  0.28811524     0.38070
H856        H  0.63973753  0.37842942  0.11236025     0.29920
H857        H  0.50493667  0.34076934  0.10538523     0.29980
H858        H  0.57414745  0.44042688  0.09826525     0.30250
Zr859      Zr  0.55071301  0.07777069  0.18812219     2.17510
O860        O  0.55361637  0.05018374  0.25205986    -0.52110
O861        O  0.52406390  0.05362547  0.14782921    -0.75310
O862        O  0.51796596  0.08322304  0.23865192    -0.82100
O863        O  0.60820976  0.05195342  0.16600096    -0.83840
O864        O  0.50836037  0.12185539  0.23219780    -0.79460
O865        O  0.57012750  0.04229624  0.16829434    -0.91100
O866        O  0.53011147  0.06295037  0.07338722    -0.77060
O867        O  0.52860560  0.10476250  0.14361424    -0.86550
O868        O  0.57001485  0.07793348  0.11613078    -0.86240
O869        O  0.55376774  0.11429528  0.22645083    -0.73000
O870        O  0.59028737  0.08790732  0.20402643    -0.85130
Zr871      Zr  0.59124538  0.15458404  0.12712301     2.26420
Zr872      Zr  0.53328791  0.14207866  0.17844312     2.06270
Zr873      Zr  0.60868487  0.09046929  0.13071357     2.10050
Zr874      Zr  0.54800184  0.10412591  0.07214618     1.78760
O875        O  0.64688594  0.07467491  0.14879390    -0.93940
O876        O  0.50761523  0.11092129  0.05117911    -0.41750
O877        O  0.58723128  0.11845618  0.08623117    -0.78380
O878        O  0.55228544  0.14257170  0.10669751    -0.97070
O879        O  0.57199396  0.15287847  0.19805629    -0.90370
O880        O  0.61224351  0.12637206  0.17075321    -0.93210
C881        C  0.52214940  0.04887294  0.10578404     1.00540
C882        C  0.59155253  0.03733298  0.17386213     1.13470
C883        C  0.50677968  0.10140419  0.25068371     1.04250
O884        O  0.50142564  0.14648315  0.12517747    -0.95370
O885        O  0.53852305  0.18490422  0.17262164    -0.91110
O886        O  0.57220581  0.19187540  0.13419464    -0.84260
C887        C  0.55381453  0.19899693  0.15428091     1.10890
O888        O  0.58801541  0.10028624  0.31141860    -0.97340
Zr889      Zr  0.59276947  0.12426972  0.24204628     1.88940
O890        O  0.61982540  0.17451185  0.17846871    -0.73990
O891        O  0.50977737  0.16817694  0.22443075    -0.53250
O892        O  0.57626044  0.14808431  0.30173100    -0.97930
O893        O  0.62924029  0.10776964  0.26969903    -0.55150
O894        O  0.61949774  0.15638548  0.24796666    -0.74510
C895        C  0.62711233  0.17214482  0.21993262     0.97840
O896        O  0.59394526  0.18427464  0.06538426    -0.63330
O897        O  0.61313308  0.07195080  0.05766209    -0.58130
O898        O  0.61948170  0.14260532  0.07289441    -0.94810
O899        O  0.64097416  0.11377762  0.10356690    -0.93240
O900        O  0.56667496  0.08640682  0.00691473    -0.93590
O901        O  0.54567404  0.12718688  0.00146692    -0.92380
C902        C  0.63884156  0.13272646  0.08036574     1.16680
H903        H  0.57050097  0.06328806  0.10054844     0.32620
H904        H  0.54552661  0.15451028  0.08712109     0.43480
H905        H  0.62837751  0.13071748  0.17457898     0.37000
H906        H  0.54747266  0.11345477  0.25689722     0.33480
H907        H  0.50547191  0.10181478  0.02339773     0.25270
H908        H  0.49333044  0.16334805  0.22041684     0.31210
H909        H  0.58976777  0.15315826  0.31968585     0.37120
H910        H  0.55445758  0.07630420  0.99407108     0.31580
H911        H  0.62850356  0.07747193  0.04576579     0.30450
H912        H  0.65200268  0.06664762  0.12105166     0.32130
H913        H  0.63476097  0.11872090  0.29279487     0.31100
H914        H  0.55860720  0.13871402  0.00305260     0.35100
H915        H  0.60546655  0.17909964  0.04256996     0.27830
H916        H  0.53802926  0.04855202  0.26658287     0.32070
H917        H  0.59580923  0.10906898  0.33551659     0.34920
H918        H  0.61544293  0.05513940  0.06551749     0.27530
H919        H  0.57886848  0.18314902  0.04954027     0.40400
H920        H  0.48818677  0.13793029  0.14009009     0.30450
H921        H  0.49820740  0.10229335  0.07473493     0.38070
H922        H  0.64050000  0.10983912  0.24409579     0.29920
H923        H  0.51332759  0.16408015  0.25650793     0.29980
H924        H  0.56364580  0.05800971  0.27419440     0.30250
Zr925      Zr  0.95947323  0.07729363  0.62938585     2.17510
O926        O  0.95323245  0.06109781  0.55476393    -0.52110
O927        O  0.97788367  0.04628024  0.67179933    -0.75310
O928        O  0.00092716  0.08057955  0.61486272    -0.82100
O929        O  0.89855184  0.05424230  0.66802606    -0.83840
O930        O  0.01265890  0.11670990  0.59543139    -0.79460
O931        O  0.93380517  0.04437449  0.63838219    -0.91100
O932        O  0.97894933  0.05876756  0.74445313    -0.77060
O933        O  0.98279642  0.10043913  0.67722177    -0.86550
O934        O  0.93805273  0.07797037  0.69870694    -0.86240
O935        O  0.96486952  0.11459722  0.59087209    -0.73000
O936        O  0.92254748  0.09310655  0.61049489    -0.85130
Zr937      Zr  0.92730769  0.15579883  0.68661732     2.26420
Zr938      Zr  0.98631051  0.13888327  0.64210021     2.06270
Zr939      Zr  0.90158293  0.09561828  0.68104085     2.10050
Zr940      Zr  0.96155566  0.09966886  0.74630811     1.78760
O941        O  0.86735412  0.08921951  0.63488161    -0.93940
O942        O  0.00070805  0.10516308  0.77540423    -0.41750
O943        O  0.92473564  0.11895120  0.72913743    -0.78380
O944        O  0.96390468  0.13879644  0.71138827    -0.97070
O945        O  0.94966974  0.15517730  0.61861408    -0.90370
O946        O  0.90559748  0.13161705  0.63891892    -0.93210
C947        C  0.98317213  0.04326683  0.71372176     1.00540
C948        C  0.91293637  0.03946517  0.65203969     1.13470
C949        C  0.00986950  0.09516405  0.58596786     1.04250
O950        O  0.01953435  0.14003498  0.69258088    -0.95370
O951        O  0.98742506  0.18099545  0.65495247    -0.91110
O952        O  0.95639876  0.18467012  0.70190564    -0.84260
C953        C  0.97425624  0.19306343  0.68064992     1.10890
O954        O  0.93730683  0.10800283  0.50280738    -0.97340
Zr955      Zr  0.92837729  0.12980136  0.57088858     1.88940
O956        O  0.90536621  0.18140277  0.63075159    -0.73990
O957        O  0.00646809  0.16421500  0.58584075    -0.53250
O958        O  0.94915512  0.15633199  0.51772824    -0.97930
O959        O  0.89362789  0.11789249  0.53045570    -0.55150
O960        O  0.90512409  0.16355812  0.56276879    -0.74510
C961        C  0.89860027  0.17956896  0.58902934     0.97840
O962        O  0.91595045  0.18157453  0.74782810    -0.63330
O963        O  0.88491279  0.07803113  0.75061702    -0.58130
O964        O  0.88951613  0.15645204  0.72110403    -0.94810
O965        O  0.87218224  0.12093707  0.71350825    -0.93240
O966        O  0.93941914  0.07833026  0.80553784    -0.93590
O967        O  0.96146776  0.11924017  0.81868711    -0.92380
C968        C  0.87217694  0.14243342  0.72515884     1.16680
H969        H  0.93589076  0.06270219  0.71317498     0.32620
H970        H  0.97152453  0.14857368  0.73302081     0.43480
H971        H  0.89028173  0.13779161  0.63290079     0.37000
H972        H  0.97271598  0.11325395  0.56195026     0.33480
H973        H  0.00190400  0.09344612  0.80073545     0.25270
H974        H  0.02317312  0.16006523  0.58736526     0.31210
H975        H  0.93734363  0.16146286  0.49539912     0.37120
H976        H  0.95099197  0.06810743  0.82076778     0.31580
H977        H  0.87073554  0.06969365  0.74076393     0.30450
H978        H  0.85477729  0.08500974  0.65706692     0.32130
H979        H  0.89144457  0.13019949  0.50649514     0.31100
H980        H  0.95092490  0.13274096  0.81404364     0.35100
H981        H  0.92916975  0.18192243  0.76908194     0.27830
H982        H  0.95873736  0.04473776  0.55591392     0.32070
H983        H  0.93290141  0.11836642  0.47680682     0.34920
H984        H  0.89584087  0.06539221  0.75942596     0.27530
H985        H  0.91514142  0.19758695  0.73412276     0.40400
H986        H  0.01634645  0.15331447  0.71260877     0.30450
H987        H  0.01121379  0.09922283  0.75146000     0.38070
H988        H  0.88058694  0.12017064  0.55221853     0.29920
H989        H  0.00122586  0.15877535  0.55600742     0.29980
H990        H  0.96355539  0.06985923  0.53310008     0.30250
Zr991      Zr  0.96135107  0.41245948  0.72177172     2.17510
O992        O  0.96155248  0.43896143  0.78509972    -0.52110
O993        O  0.97639702  0.44400751  0.67268168    -0.75310
O994        O  0.00042302  0.41175835  0.75113051    -0.82100
O995        O  0.89949538  0.43120836  0.68384514    -0.83840
O996        O  0.00948562  0.37430809  0.76948233    -0.79460
O997        O  0.92815085  0.43670017  0.73509852    -0.91100
O998        O  0.98160297  0.42841260  0.60328511    -0.77060
O999        O  0.98617130  0.38810513  0.67853879    -0.86550
O1000       O  0.94190575  0.41011766  0.65148808    -0.86240
O1001       O  0.96463496  0.37635673  0.76544237    -0.73000
O1002       O  0.92406625  0.39552086  0.73911102    -0.85130
Zr1003     Zr  0.92980402  0.33209034  0.67086029     2.26420
Zr1004     Zr  0.98740052  0.35063475  0.71851352     2.06270
Zr1005     Zr  0.90511354  0.39126836  0.66758640     2.10050
Zr1006     Zr  0.96679790  0.38657948  0.60826171     1.78760
O1007       O  0.86733676  0.39963848  0.70199527    -0.93940
O1008       O  0.00748069  0.38259552  0.58496750    -0.41750
O1009       O  0.92933917  0.36712013  0.62309806    -0.78380
O1010       O  0.96735945  0.34858493  0.64817650    -0.97070
O1011       O  0.95010276  0.33454019  0.73994558    -0.90370
O1012       O  0.90685065  0.35711998  0.71521152    -0.93210
C1013       C  0.98263861  0.44581941  0.63076089     1.00540
C1014       C  0.90850621  0.44147144  0.71700244     1.13470
C1015       C  0.00954427  0.39626774  0.77739734     1.04250
O1016       O  0.02223275  0.34896518  0.67062886    -0.95370
O1017       O  0.98692234  0.30748200  0.71349625    -0.91110
O1018       O  0.95528156  0.29963317  0.67134957    -0.84260
C1019       C  0.97319567  0.29329895  0.69337107     1.10890
O1020       O  0.92769295  0.38891367  0.84475801    -0.97340
Zr1021     Zr  0.92770195  0.36052957  0.78437454     1.88940
O1022       O  0.90272702  0.31183350  0.72781330    -0.73990
O1023       O  0.00852030  0.32688286  0.77440436    -0.53250
O1024       O  0.95099303  0.34485259  0.84679180    -0.97930
O1025       O  0.88918165  0.36311702  0.82000030    -0.55150
O1026       O  0.91464451  0.32118130  0.79771407    -0.74510
C1027       C  0.90144636  0.30988108  0.77180036     0.97840
O1028       O  0.93016624  0.30235997  0.61283369    -0.63330
O1029       O  0.89416767  0.40671422  0.59298864    -0.58130
O1030       O  0.89389385  0.33012896  0.63116089    -0.94810
O1031       O  0.87546403  0.36443221  0.64148947    -0.93240
O1032       O  0.94644782  0.40347538  0.54325580    -0.93590
O1033       O  0.97156154  0.36394729  0.53997395    -0.92380
C1034       C  0.87590854  0.34305157  0.62932128     1.16680
H1035       H  0.93945631  0.42529693  0.63708575     0.32620
H1036       H  0.97534067  0.33765339  0.62906250     0.43480
H1037       H  0.89112624  0.35157293  0.72102041     0.37000
H1038       H  0.97091615  0.37900204  0.79508940     0.33480
H1039       H  0.00928207  0.39310631  0.55776468     0.25270
H1040       H  0.02490188  0.33244716  0.77281832     0.31210
H1041       H  0.93952412  0.33783629  0.86876058     0.37120
H1042       H  0.95840796  0.41304869  0.52655048     0.31580
H1043       H  0.87799373  0.41228749  0.59723235     0.30450
H1044       H  0.85789440  0.40627108  0.67690387     0.32130
H1045       H  0.88936897  0.35168380  0.84596237     0.31100
H1046       H  0.96037904  0.35073111  0.54418118     0.35100
H1047       H  0.92641113  0.31075911  0.58396200     0.27830
H1048       H  0.97108699  0.45261512  0.77453235     0.32070
H1049       H  0.92327229  0.37996298  0.87292819     0.34920
H1050       H  0.90355308  0.42123457  0.58836194     0.27530
H1051       H  0.91668511  0.29184551  0.61938500     0.40400
H1052       H  0.02015098  0.33458510  0.65305091     0.30450
H1053       H  0.01652055  0.39044586  0.60865309     0.38070
H1054       H  0.87821498  0.35628859  0.79828360     0.29920
H1055       H  0.00253181  0.33172190  0.80440495     0.29980
H1056       H  0.97054991  0.43101825  0.80938559     0.30250
Zr1057     Zr  0.77401447  0.24041398  0.85425601     2.17510
O1058       O  0.77310529  0.27169162  0.79646488    -0.52110
O1059       O  0.79935092  0.21030336  0.82251686    -0.75310
O1060       O  0.81078993  0.26007309  0.84921110    -0.82100
O1061       O  0.71692738  0.22832496  0.80289089    -0.83840
O1062       O  0.82114954  0.26877532  0.92117574    -0.79460
O1063       O  0.75533927  0.22675995  0.78734133    -0.91100
O1064       O  0.79865993  0.17907162  0.87155058    -0.77060
O1065       O  0.79489460  0.22507997  0.91730140    -0.86550
O1066       O  0.75578138  0.20393240  0.87072450    -0.86240
O1067       O  0.76851703  0.26893979  0.91231299    -0.73000
O1068       O  0.73435496  0.25162888  0.86872538    -0.85130
Zr1069     Zr  0.73072752  0.22358610  0.00860312     2.26420
Zr1070     Zr  0.78991676  0.25316445  0.97494022     2.06270
Zr1071     Zr  0.71611153  0.21471772  0.88189795     2.10050
Zr1072     Zr  0.77584831  0.18897410  0.93602020     1.78760
O1073       O  0.67632674  0.22671813  0.86604112    -0.93940
O1074       O  0.81393848  0.17955038  0.96696380    -0.41750
O1075       O  0.73692011  0.19955775  0.94593561    -0.78380
O1076       O  0.77173612  0.21615135  0.99561666    -0.97070
O1077       O  0.74954095  0.26039246  0.99404318    -0.90370
O1078       O  0.70959508  0.23973153  0.94587966    -0.93210
C1079       C  0.80506381  0.18917580  0.83438537     1.00540
C1080       C  0.73427729  0.22988084  0.77516867     1.13470
C1081       C  0.82456360  0.26923890  0.87741319     1.04250
O1082       O  0.82694739  0.23975115  0.00519429    -0.95370
O1083       O  0.78733134  0.24904646  0.05799303    -0.91110
O1084       O  0.75403454  0.22853247  0.07523117    -0.84260
C1085       C  0.77307217  0.23860650  0.08630416     1.10890
O1086       O  0.73260579  0.31030971  0.88026477    -0.97340
Zr1087     Zr  0.72814802  0.27664354  0.93270387     1.88940
O1088       O  0.69937590  0.24797719  0.04005295    -0.73990
O1089       O  0.79623022  0.29318367  0.99868089    -0.53250
O1090       O  0.74164062  0.31103526  0.97212366    -0.97930
O1091       O  0.69229737  0.28694576  0.89353569    -0.55150
O1092       O  0.69927804  0.28113865  0.99585411    -0.74510
C1093       C  0.69173991  0.26869273  0.03056867     0.97840
O1094       O  0.71489885  0.20191817  0.07493692    -0.63330
O1095       O  0.71128189  0.17857991  0.84056372    -0.58130
O1096       O  0.71815657  0.18538559  0.98001996    -0.94810
O1097       O  0.69129528  0.18948064  0.92584169    -0.93240
O1098       O  0.76003332  0.15122321  0.91428672    -0.93590
O1099       O  0.77047285  0.16077319  0.99922112    -0.92380
C1100       C  0.69854497  0.18002898  0.96242310     1.16680
H1101       H  0.75707105  0.19326368  0.84595497     0.32620
H1102       H  0.77916603  0.20882073  0.02154121     0.43480
H1103       H  0.69312823  0.24098970  0.95255864     0.37000
H1104       H  0.77568372  0.28355742  0.90210114     0.33480
H1105       H  0.81604375  0.16268747  0.96112496     0.25270
H1106       H  0.81273896  0.29358327  0.00805285     0.31210
H1107       H  0.72726126  0.31945965  0.98056759     0.37120
H1108       H  0.77276634  0.13988395  0.91949074     0.31580
H1109       H  0.69470501  0.17845073  0.83162824     0.30450
H1110       H  0.67125608  0.21649573  0.84136934     0.32130
H1111       H  0.68418862  0.29786085  0.91384480     0.31100
H1112       H  0.75847196  0.16775951  0.01905276     0.35100
H1113       H  0.69832012  0.20636724  0.07751427     0.27830
H1114       H  0.78882238  0.27276732  0.78223443     0.32070
H1115       H  0.72248106  0.32267543  0.89252746     0.34920
H1116       H  0.72001934  0.18113317  0.81159304     0.27530
H1117       H  0.71469308  0.18518871  0.06695969     0.40400
H1118       H  0.83314312  0.22910192  0.98205727     0.30450
H1119       H  0.82528868  0.18767422  0.94621753     0.38070
H1120       H  0.68262299  0.27250366  0.89517377     0.29920
H1121       H  0.79591292  0.30284747  0.97021784     0.29980
H1122       H  0.77111138  0.28624966  0.81345728     0.30250
Zr1123     Zr  0.77340798  0.24819223  0.50805351     2.17510
O1124       O  0.77526380  0.21936618  0.57072593    -0.52110
O1125       O  0.79668325  0.27895758  0.54092291    -0.75310
O1126       O  0.81110676  0.23167241  0.51395394    -0.82100
O1127       O  0.71529176  0.26221210  0.56190633    -0.83840
O1128       O  0.82336274  0.22496532  0.44186981    -0.79460
O1129       O  0.75325216  0.25553029  0.57612912    -0.91100
O1130       O  0.79650020  0.31176565  0.49574156    -0.77060
O1131       O  0.79474157  0.26643091  0.44740803    -0.86550
O1132       O  0.75426641  0.28406318  0.49431378    -0.86240
O1133       O  0.77035739  0.21992114  0.44966457    -0.73000
O1134       O  0.73440951  0.23562711  0.49310779    -0.85130
Zr1135     Zr  0.73253770  0.26562788  0.35444169     2.26420
Zr1136     Zr  0.79204898  0.23870288  0.38904029     2.06270
Zr1137     Zr  0.71538280  0.27186379  0.48029889     2.10050
Zr1138     Zr  0.77449108  0.30180423  0.43049305     1.78760
O1139       O  0.67616587  0.25562313  0.48960664    -0.93940
O1140       O  0.81271123  0.31350526  0.40021645    -0.41750
O1141       O  0.73545534  0.29089159  0.41695564    -0.78380
O1142       O  0.77270410  0.27504385  0.36968615    -0.97070
O1143       O  0.75239053  0.22970585  0.36864241    -0.90370
O1144       O  0.71113948  0.24721385  0.41586636    -0.93210
C1145       C  0.80246020  0.30037222  0.53159673     1.00540
C1146       C  0.73233531  0.25869513  0.58897164     1.13470
C1147       C  0.82603688  0.22431731  0.48557187     1.04250
O1148       O  0.82747492  0.25668671  0.35710302    -0.95370
O1149       O  0.78957975  0.23888736  0.30691806    -0.91110
O1150       O  0.75617348  0.25807836  0.28763046    -0.84260
C1151       C  0.77515652  0.24741947  0.27801808     1.10890
O1152       O  0.73305788  0.17791117  0.48203112    -0.97340
Zr1153     Zr  0.73057343  0.21107928  0.42819941     1.88940
O1154       O  0.70262737  0.24024999  0.32268238    -0.73990
O1155       O  0.80284047  0.19950946  0.36629033    -0.53250
O1156       O  0.74650045  0.17669740  0.39219629    -0.97930
O1157       O  0.69289281  0.20015010  0.46227466    -0.55150
O1158       O  0.70553946  0.20541229  0.36113016    -0.74510
C1159       C  0.69718590  0.21848445  0.32869674     0.97840
O1160       O  0.72520167  0.28842950  0.28471515    -0.63330
O1161       O  0.70434938  0.30570777  0.52451095    -0.58130
O1162       O  0.70644317  0.29864493  0.36659605    -0.94810
O1163       O  0.69260050  0.29934267  0.43938675    -0.93240
O1164       O  0.75722915  0.33823857  0.45533528    -0.93590
O1165       O  0.77086449  0.33139183  0.36958054    -0.92380
C1166       C  0.69353508  0.30693507  0.39834724     1.16680
H1167       H  0.75459231  0.29401971  0.52028714     0.32620
H1168       H  0.78017498  0.28233778  0.34323489     0.43480
H1169       H  0.69487595  0.24517138  0.40876809     0.37000
H1170       H  0.77794607  0.20561167  0.45930911     0.33480
H1171       H  0.81504829  0.32969845  0.41059699     0.25270
H1172       H  0.81977791  0.20062120  0.35955436     0.31210
H1173       H  0.73278264  0.16667634  0.38622125     0.37120
H1174       H  0.76986100  0.35009700  0.45171461     0.31580
H1175       H  0.69047228  0.30055577  0.54263509     0.30450
H1176       H  0.67081812  0.26076964  0.51981054     0.32130
H1177       H  0.68110446  0.20716546  0.44185465     0.31100
H1178       H  0.76703706  0.32257143  0.34217577     0.35100
H1179       H  0.70803177  0.28908643  0.28190517     0.27830
H1180       H  0.78917580  0.22351160  0.58847056     0.32070
H1181       H  0.72268498  0.16561313  0.47024214     0.34920
H1182       H  0.71679397  0.30766864  0.54710269     0.27530
H1183       H  0.73012676  0.30467855  0.29096397     0.40400
H1184       H  0.83511037  0.26395922  0.38321421     0.30450
H1185       H  0.82393031  0.30401508  0.41803188     0.38070
H1186       H  0.69181998  0.20935504  0.49021114     0.29920
H1187       H  0.80163201  0.18963198  0.39445161     0.29980
H1188       H  0.77913083  0.20436182  0.55652936     0.30250
Zr1189     Zr  0.42179114  0.03643334  0.41235180     2.17510
O1190       O  0.44884104  0.02456862  0.35273723    -0.52110
O1191       O  0.45249406  0.01574056  0.45265360    -0.75310
O1192       O  0.44948472  0.06777789  0.39457534    -0.82100
O1193       O  0.37931173  0.98559901  0.39375120    -0.83840
O1194       O  0.44238088  0.10142259  0.43216750    -0.79460
O1195       O  0.40806539  0.00787556  0.36024904    -0.91100
O1196       O  0.44273809  0.01762931  0.52724145    -0.77060
O1197       O  0.42373034  0.05654890  0.48134836    -0.86550
O1198       O  0.39879360  0.01271312  0.46406533    -0.86240
O1199       O  0.40609074  0.07457533  0.39523871    -0.73000
O1200       O  0.38315902  0.03429468  0.38256505    -0.85130
Zr1201     Zr  0.34436486  0.07194589  0.48132072     2.26420
Zr1202     Zr  0.40560725  0.09371001  0.46687621     2.06270
Zr1203     Zr  0.35904976  0.01336270  0.43756670     2.10050
Zr1204     Zr  0.40124967  0.03290224  0.53242871     1.78760
O1205       O  0.33728794  0.98853231  0.38688888    -0.93940
O1206       O  0.42202819  0.05347778  0.59103040    -0.41750
O1207       O  0.36091324  0.03442956  0.50544286    -0.78380
O1208       O  0.38216192  0.07029788  0.51809484    -0.97070
O1209       O  0.36886157  0.09348162  0.42997231    -0.90370
O1210       O  0.34439687  0.05074509  0.41356093    -0.93210
C1211       C  0.45736382  0.01264102  0.49471140     1.00540
C1212       C  0.39373450  0.99055528  0.36176564     1.13470
C1213       C  0.45370418  0.08919956  0.40420879     1.04250
O1214       O  0.43374789  0.10586354  0.52286273    -0.95370
O1215       O  0.38689770  0.11927429  0.51930426    -0.91110
O1216       O  0.34892246  0.10754206  0.52097034    -0.84260
C1217       C  0.36566550  0.12096810  0.53207693     1.10890
O1218       O  0.39444904  0.06549890  0.29610101    -0.97340
Zr1219     Zr  0.36903909  0.07180939  0.36179546     1.88940
O1220       O  0.32219278  0.10075328  0.43130426    -0.73990
O1221       O  0.40376892  0.13236898  0.42975818    -0.53250
O1222       O  0.37660518  0.10796063  0.31776895    -0.97930
O1223       O  0.34528428  0.05070294  0.30801298    -0.55150
O1224       O  0.33595143  0.09695866  0.35942568    -0.74510
C1225       C  0.32199303  0.10600692  0.38793622     0.97840
O1226       O  0.31975883  0.07236404  0.54973522    -0.63330
O1227       O  0.35425007  0.98370961  0.49812988    -0.58130
O1228       O  0.30803768  0.05030882  0.47626900    -0.94810
O1229       O  0.31657325  0.01530404  0.44541292    -0.93240
O1230       O  0.39574421  0.99208924  0.55705795    -0.93590
O1231       O  0.38361406  0.02843258  0.60788330    -0.92380
C1232       C  0.30213325  0.03055820  0.46006469     1.16680
H1233       H  0.40481467  0.99697849  0.46699107     0.32620
H1234       H  0.38101597  0.07746386  0.54731546     0.43480
H1235       H  0.32924042  0.05006701  0.39989271     0.37000
H1236       H  0.41443208  0.08341628  0.37185889     0.33480
H1237       H  0.42896278  0.04089922  0.61027093     0.25270
H1238       H  0.38705168  0.13654618  0.42992942     0.31210
H1239       H  0.36613522  0.10723952  0.29135274     0.37120
H1240       H  0.41085505  0.98743969  0.57029980     0.31580
H1241       H  0.33776489  0.97859709  0.49630648     0.30450
H1242       H  0.33241322  0.97470908  0.40591821     0.32130
H1243       H  0.34462259  0.06118816  0.28068454     0.31100
H1244       H  0.36978277  0.03870936  0.60680939     0.35100
H1245       H  0.31724084  0.05565981  0.55868011     0.27830
H1246       H  0.46464559  0.02753737  0.36450190     0.32070
H1247       H  0.38512879  0.06932271  0.26886402     0.34920
H1248       H  0.36329841  0.97016511  0.48748300     0.27530
H1249       H  0.32986074  0.07824641  0.57398351     0.40400
H1250       H  0.42630998  0.10194196  0.55268014     0.30450
H1251       H  0.43556521  0.06084434  0.57484326     0.38070
H1252       H  0.32923195  0.05086183  0.32065304     0.29920
H1253       H  0.41101973  0.14313886  0.45131441     0.29980
H1254       H  0.44695840  0.03637292  0.32772738     0.30250
Zr1255     Zr  0.08295974  0.02943297  0.45672876     2.17510
O1256       O  0.05615540  0.02029867  0.51938106    -0.52110
O1257       O  0.05937399  0.00415131  0.41116299    -0.75310
O1258       O  0.04857987  0.05196443  0.44777539    -0.82100
O1259       O  0.12190718  0.98348413  0.48680864    -0.83840
O1260       O  0.05528015  0.08722537  0.41260995    -0.79460
O1261       O  0.09021568  0.00034222  0.51521882    -0.91100
O1262       O  0.07003361  0.01562571  0.33967776    -0.77060
O1263       O  0.08421392  0.05102661  0.38672067    -0.86550
O1264       O  0.11118398  0.00904692  0.41378832    -0.86240
O1265       O  0.09219466  0.06934754  0.47481253    -0.73000
O1266       O  0.11832653  0.03275109  0.49816973    -0.85130
Zr1267     Zr  0.16073666  0.07328032  0.40542235     2.26420
Zr1268     Zr  0.09710496  0.08987752  0.40297331     2.06270
Zr1269     Zr  0.14719585  0.01336721  0.45427596     2.10050
Zr1270     Zr  0.11164965  0.03040935  0.34398726     1.78760
O1271       O  0.16470283  0.00030080  0.52543573    -0.93940
O1272       O  0.09685297  0.05091589  0.27676256    -0.41750
O1273       O  0.14880933  0.03437971  0.38328012    -0.78380
O1274       O  0.12576068  0.06914434  0.36022484    -0.97070
O1275       O  0.13157077  0.09330533  0.44689291    -0.90370
O1276       O  0.15703794  0.05231441  0.47544801    -0.93210
C1277       C  0.05533967  0.00582779  0.36856195     1.00540
C1278       C  0.10830406  0.98764302  0.51997380     1.13470
C1279       C  0.04188424  0.07197085  0.43255166     1.04250
O1280       O  0.07461473  0.11177687  0.34677122    -0.95370
O1281       O  0.11799754  0.11623465  0.35011540    -0.91110
O1282       O  0.15648403  0.10776496  0.35826956    -0.84260
C1283       C  0.13969747  0.11923236  0.34046590     1.10890
O1284       O  0.10603953  0.05825700  0.58511874    -0.97340
Zr1285     Zr  0.12755609  0.07187500  0.51715607     1.88940
O1286       O  0.17803603  0.10359341  0.45560615    -0.73990
O1287       O  0.09362946  0.12332299  0.45207540    -0.53250
O1288       O  0.10624229  0.10515384  0.54658678    -0.97930
O1289       O  0.15264665  0.06076275  0.58055163    -0.55150
O1290       O  0.15720893  0.10202009  0.52170758    -0.74510
C1291       C  0.17332727  0.11099352  0.49600673     0.97840
O1292       O  0.18969972  0.07519689  0.34360078    -0.63330
O1293       O  0.16122885  0.97981712  0.41292654    -0.58130
O1294       O  0.19748762  0.05364493  0.42144552    -0.94810
O1295       O  0.18925964  0.01656176  0.44767299    -0.93240
O1296       O  0.11853680  0.99003816  0.32308844    -0.93590
O1297       O  0.13559675  0.02750455  0.27553117    -0.92380
C1298       C  0.20347569  0.03321979  0.43641743     1.16680
H1299       H  0.10668618  0.99290232  0.40977085     0.32620
H1300       H  0.12833022  0.07624693  0.33044980     0.43480
H1301       H  0.17138145  0.05262913  0.49216970     0.37000
H1302       H  0.07955765  0.07599121  0.49205272     0.33480
H1303       H  0.08746387  0.03902227  0.26119393     0.25270
H1304       H  0.09448097  0.13717986  0.43105905     0.31210
H1305       H  0.09016547  0.09947968  0.55313159     0.37120
H1306       H  0.10459566  0.98562225  0.30571662     0.31580
H1307       H  0.16759380  0.96910639  0.43666417     0.30450
H1308       H  0.17635782  0.98845534  0.51682601     0.32130
H1309       H  0.15186925  0.07411549  0.60125161     0.31100
H1310       H  0.14832139  0.03907086  0.27939787     0.35100
H1311       H  0.19369110  0.05869222  0.33769833     0.27830
H1312       H  0.04107375  0.01691889  0.50495752     0.32070
H1313       H  0.10868942  0.07019615  0.60827760     0.34920
H1314       H  0.14692967  0.97181059  0.40277329     0.27530
H1315       H  0.18112662  0.08017775  0.31606346     0.40400
H1316       H  0.07132314  0.10037995  0.32292765     0.30450
H1317       H  0.08521095  0.06195384  0.28877611     0.38070
H1318       H  0.16880170  0.06136299  0.56833199     0.29920
H1319       H  0.07723391  0.12283455  0.46305674     0.29980
H1320       H  0.05409262  0.03548832  0.53432559     0.30250
Zr1321     Zr  0.42960036  0.45126308  0.95714981     2.17510
O1322       O  0.44939160  0.45369968  0.02888695    -0.52110
O1323       O  0.45896707  0.47267944  0.91356775    -0.75310
O1324       O  0.45886324  0.42334169  0.93310055    -0.82100
O1325       O  0.38492144  0.48811042  0.01014359    -0.83840
O1326       O  0.45012309  0.38572584  0.93983258    -0.79460
O1327       O  0.42291262  0.48874387  0.99142651    -0.91100
O1328       O  0.44757202  0.46767378  0.84082256    -0.77060
O1329       O  0.42900478  0.42938771  0.88970713    -0.86550
O1330       O  0.40497480  0.47393253  0.90858294    -0.86240
O1331       O  0.41492321  0.41277617  0.97865342    -0.73000
O1332       O  0.39209547  0.45214173  0.99216856    -0.85130
Zr1333     Zr  0.35094446  0.41382570  0.90480813     2.26420
Zr1334     Zr  0.41221310  0.39148836  0.90837428     2.06270
Zr1335     Zr  0.36666532  0.47362259  0.94342339     2.10050
Zr1336     Zr  0.40548363  0.45224475  0.84152620     1.78760
O1337       O  0.34626433  0.50544321  0.98027226    -0.93940
O1338       O  0.42373336  0.43244916  0.77821836    -0.41750
O1339       O  0.36643238  0.45134249  0.87668356    -0.78380
O1340       O  0.38720055  0.41420739  0.86082775    -0.97070
O1341       O  0.37669126  0.39244803  0.95190965    -0.90370
O1342       O  0.35238339  0.43613193  0.97076573    -0.93210
C1343       C  0.46291621  0.47407665  0.87063149     1.00540
C1344       C  0.40615915  0.49235509  0.01953800     1.13470
C1345       C  0.46184216  0.40328462  0.95235904     1.04250
O1346       O  0.43362644  0.38529252  0.83787647    -0.95370
O1347       O  0.38768643  0.36173133  0.87423113    -0.91110
O1348       O  0.35059824  0.37522391  0.87738280    -0.84260
C1349       C  0.36571850  0.35989745  0.86750940     1.10890
O1350       O  0.40479630  0.42153963  0.08198084    -0.97340
Zr1351     Zr  0.37887475  0.41514876  0.01845136     1.88940
O1352       O  0.32808596  0.38928191  0.96307080    -0.73990
O1353       O  0.42088338  0.35187516  0.93589431    -0.53250
O1354       O  0.38858483  0.37662970  0.05044469    -0.97930
O1355       O  0.36030860  0.43577438  0.08052241    -0.55150
O1356       O  0.34291070  0.39524698  0.03281165    -0.74510
C1357       C  0.32817618  0.38581465  0.00701250     0.97840
O1358       O  0.32804316  0.41091563  0.83598091    -0.63330
O1359       O  0.36982854  0.50626745  0.88837268    -0.58130
O1360       O  0.31533350  0.43539311  0.90682530    -0.94810
O1361       O  0.32413678  0.47044266  0.93710743    -0.93240
O1362       O  0.40066200  0.49250571  0.81362608    -0.93590
O1363       O  0.38367979  0.45508146  0.77119399    -0.92380
C1364       C  0.30966632  0.45533893  0.92195255     1.16680
H1365       H  0.41115804  0.48959714  0.90345599     0.32620
H1366       H  0.38473479  0.40607993  0.83294163     0.43480
H1367       H  0.33747121  0.43702267  0.98619572     0.37000
H1368       H  0.42507453  0.40515109  0.00014911     0.33480
H1369       H  0.42881406  0.44528346  0.75686860     0.25270
H1370       H  0.40617279  0.34580691  0.94990246     0.31210
H1371       H  0.37868378  0.37471593  0.07814208     0.37120
H1372       H  0.41502617  0.49606793  0.79562864     0.31580
H1373       H  0.35367684  0.50901681  0.87815524     0.30450
H1374       H  0.33697712  0.51336482  0.95633045     0.32130
H1375       H  0.35408131  0.42328383  0.10147343     0.31100
H1376       H  0.37012762  0.44444949  0.77648533     0.35100
H1377       H  0.32758034  0.42719499  0.82347944     0.27830
H1378       H  0.46547225  0.45862260  0.02055906     0.32070
H1379       H  0.39863477  0.41146709  0.10741046     0.34920
H1380       H  0.37373217  0.52007718  0.90648176     0.27530
H1381       H  0.33825589  0.40291726  0.81406249     0.40400
H1382       H  0.45005383  0.38898783  0.84494181     0.30450
H1383       H  0.43846482  0.42621700  0.79062904     0.38070
H1384       H  0.34630004  0.44310018  0.06711284     0.29920
H1385       H  0.42342990  0.34247155  0.90854733     0.29980
H1386       H  0.45011272  0.43751506  0.04155598     0.30250
Zr1387     Zr  0.09263323  0.46173091  0.91462695     2.17510
O1388       O  0.07077953  0.47156530  0.84651678    -0.52110
O1389       O  0.06620851  0.48390101  0.96035994    -0.75310
O1390       O  0.05665513  0.44059349  0.91927058    -0.82100
O1391       O  0.14257806  0.50339357  0.87653016    -0.83840
O1392       O  0.06101768  0.40318138  0.94605218    -0.79460
O1393       O  0.10314205  0.49861583  0.87729116    -0.91100
O1394       O  0.07342489  0.46797310  0.02994469    -0.77060
O1395       O  0.09002856  0.43579277  0.97902201    -0.86550
O1396       O  0.11922587  0.47839055  0.96542737    -0.86240
O1397       O  0.10045947  0.42282687  0.88980430    -0.73000
O1398       O  0.12916261  0.46081132  0.87589807    -0.85130
Zr1399     Zr  0.16613056  0.41202900  0.96015550     2.26420
Zr1400     Zr  0.10217759  0.39766762  0.95689999     2.06270
Zr1401     Zr  0.15673503  0.47484355  0.92915397     2.10050
Zr1402     Zr  0.11564945  0.45260829  0.02935829     1.78760
O1403       O  0.18430191  0.49885110  0.88409496    -0.93940
O1404       O  0.09699950  0.42979890  0.09108227    -0.41750
O1405       O  0.15445050  0.44885697  0.99333253    -0.78380
O1406       O  0.13018025  0.41453633  0.00558567    -0.97070
O1407       O  0.13731076  0.39650624  0.91273760    -0.90370
O1408       O  0.16563733  0.43801282  0.89657399    -0.93210
C1409       C  0.05997064  0.47949553  0.00151945     1.00540
C1410       C  0.12216948  0.50883321  0.86396296     1.13470
C1411       C  0.04880343  0.42001816  0.92950884     1.04250
O1412       O  0.08092337  0.37978159  0.02140300    -0.95370
O1413       O  0.12244333  0.36386776  0.99064107    -0.91110
O1414       O  0.16096231  0.37358105  0.99251724    -0.84260
C1415       C  0.14377253  0.35964653  0.00064431     1.10890
O1416       O  0.11247446  0.43787769  0.78637660    -0.97340
Zr1417     Zr  0.13633214  0.42278581  0.84854423     1.88940
O1418       O  0.18383571  0.38626948  0.89985847    -0.73990
O1419       O  0.09123808  0.36648605  0.90637844    -0.53250
O1420       O  0.11636626  0.38908042  0.81744302    -0.97930
O1421       O  0.16010398  0.43971590  0.78634099    -0.55150
O1422       O  0.16658648  0.39541512  0.83324408    -0.74510
C1423       C  0.18122911  0.38359882  0.85630937     0.97840
O1424       O  0.19299036  0.40528294  0.02281436    -0.63330
O1425       O  0.16016401  0.50445042  0.98662422    -0.58130
O1426       O  0.20420428  0.43040627  0.95123027    -0.94810
O1427       O  0.19797745  0.46939186  0.94054071    -0.93240
O1428       O  0.12285784  0.49142037  0.05886480    -0.93590
O1429       O  0.13656893  0.45219832  0.10076904    -0.92380
C1430       C  0.21124785  0.45163971  0.94527773     1.16680
H1431       H  0.11522635  0.49439888  0.97173564     0.32620
H1432       H  0.13164705  0.40472141  0.03267133     0.43480
H1433       H  0.18037946  0.43855176  0.88035483     0.37000
H1434       H  0.08818330  0.41766717  0.87020569     0.33480
H1435       H  0.09028482  0.44166095  0.11127934     0.25270
H1436       H  0.08214175  0.35524921  0.92593939     0.31210
H1437       H  0.12069157  0.38918382  0.78481166     0.37120
H1438       H  0.10718612  0.49833403  0.06255361     0.31580
H1439       H  0.17710895  0.50567526  0.99219226     0.30450
H1440       H  0.18758346  0.51263511  0.90271603     0.32130
H1441       H  0.16040545  0.42767783  0.76281456     0.31100
H1442       H  0.14961537  0.44123432  0.09595234     0.35100
H1443       H  0.19649426  0.42105522  0.03428501     0.27830
H1444       H  0.05527986  0.47649599  0.85776857     0.32070
H1445       H  0.11692079  0.42892923  0.75933101     0.34920
H1446       H  0.15624814  0.51935710  0.97052423     0.27530
H1447       H  0.18350006  0.39784687  0.04760452     0.40400
H1448       H  0.09084090  0.38255804  0.04800553     0.30450
H1449       H  0.08325709  0.42253032  0.07699515     0.38070
H1450       H  0.17621878  0.44006745  0.79791303     0.29920
H1451       H  0.07959428  0.37358413  0.88571830     0.29980
H1452       H  0.06798598  0.45632913  0.83222595     0.30250
Zr1453     Zr  0.26948661  0.22229127  0.61035845     2.17510
O1454       O  0.29352482  0.22309354  0.54146867    -0.52110
O1455       O  0.24262704  0.19374102  0.57912314    -0.75310
O1456       O  0.29495955  0.18904241  0.60949752    -0.82100
O1457       O  0.24599943  0.28117088  0.56665836    -0.83840
O1458       O  0.30831963  0.17875166  0.67946940    -0.79460
O1459       O  0.26189487  0.24682778  0.54390396    -0.91100
O1460       O  0.21373926  0.18950849  0.63181063    -0.77060
O1461       O  0.25664916  0.19881133  0.67416414    -0.86550
O1462       O  0.23385194  0.24029768  0.63161318    -0.86240
O1463       O  0.29959353  0.22449133  0.66602096    -0.73000
O1464       O  0.27858502  0.26217281  0.62687659    -0.85130
Zr1465     Zr  0.26069456  0.25849308  0.77080904     2.26420
Zr1466     Zr  0.28585499  0.20206192  0.73220299     2.06270
Zr1467     Zr  0.24308876  0.28001183  0.65195105     2.10050
Zr1468     Zr  0.22092036  0.21653852  0.69435372     1.78760
O1469       O  0.25541422  0.31900865  0.62525909    -0.93940
O1470       O  0.21248959  0.17908833  0.73324447    -0.41750
O1471       O  0.22984028  0.25624853  0.71594774    -0.78380
O1472       O  0.24950064  0.21927955  0.75265270    -0.97070
O1473       O  0.29642529  0.24145246  0.74833216    -0.90370
O1474       O  0.27357846  0.28165629  0.70650737    -0.93210
C1475       C  0.22358490  0.18411968  0.59382641     1.00540
C1476       C  0.25364040  0.26730738  0.53556260     1.13470
C1477       C  0.30860744  0.17757161  0.63597347     1.04250
O1478       O  0.27726487  0.16084801  0.74910212    -0.95370
O1479       O  0.27770144  0.19818510  0.81558901    -0.91110
O1480       O  0.26757110  0.23457536  0.83810294    -0.84260
C1481       C  0.27149174  0.21282334  0.84623786     1.10890
O1482       O  0.33486192  0.25979988  0.61648589    -0.97340
Zr1483     Zr  0.30860154  0.26362990  0.68176518     1.88940
O1484       O  0.29289715  0.28183978  0.80036823    -0.73990
O1485       O  0.32406179  0.19927382  0.76704017    -0.53250
O1486       O  0.34656024  0.24901186  0.70523389    -0.97930
O1487       O  0.31805032  0.30153112  0.64546881    -0.55150
O1488       O  0.32014729  0.28626052  0.74386086    -0.74510
C1489       C  0.31205930  0.29026401  0.78329896     0.97840
O1490       O  0.23461049  0.25854275  0.83710325    -0.63330
O1491       O  0.20241534  0.28681178  0.63347201    -0.58130
O1492       O  0.24181327  0.29530889  0.78076680    -0.94810
O1493       O  0.23004769  0.30850756  0.71148852    -0.93240
O1494       O  0.18382330  0.22952492  0.66380233    -0.93590
O1495       O  0.19076666  0.21855649  0.75306346    -0.92380
C1496       C  0.23180328  0.31051554  0.75539424     1.16680
H1497       H  0.22282420  0.23998403  0.60713926     0.32620
H1498       H  0.24242686  0.21140656  0.77884321     0.43480
H1499       H  0.27652656  0.29768410  0.71454638     0.37000
H1500       H  0.31440397  0.21916350  0.65458815     0.33480
H1501       H  0.19934280  0.17232044  0.71643323     0.25270
H1502       H  0.32578665  0.18241788  0.77514082     0.31210
H1503       H  0.35653735  0.26316136  0.70744404     0.37120
H1504       H  0.17485905  0.21488587  0.65941309     0.31580
H1505       H  0.20161734  0.30382455  0.62609407     0.30450
H1506       H  0.24072006  0.32737859  0.61876823     0.32130
H1507       H  0.33069841  0.30813928  0.66386236     0.31100
H1508       H  0.19847731  0.22631740  0.77855824     0.35100
H1509       H  0.23970802  0.27172198  0.85583346     0.27830
H1510       H  0.29073517  0.20792778  0.52692933     0.32070
H1511       H  0.34870586  0.26961399  0.62267040     0.34920
H1512       H  0.20023374  0.27923728  0.60398383     0.27530
H1513       H  0.21911645  0.26310549  0.82552824     0.40400
H1514       H  0.27023410  0.15503141  0.72100907     0.30450
H1515       H  0.22595693  0.16907912  0.72575182     0.38070
H1516       H  0.30437476  0.31149010  0.65152909     0.29920
H1517       H  0.33532011  0.20218698  0.74166488     0.29980
H1518       H  0.30986324  0.22269159  0.55191335     0.30250
Zr1519     Zr  0.23476424  0.22433836  0.26647871     2.17510
O1520       O  0.20956464  0.22196220  0.33397759    -0.52110
O1521       O  0.26028862  0.19533860  0.30268996    -0.75310
O1522       O  0.20679854  0.19230279  0.26541046    -0.82100
O1523       O  0.26037543  0.28232968  0.30808466    -0.83840
O1524       O  0.20067132  0.17975669  0.19369887    -0.79460
O1525       O  0.24130345  0.24874079  0.33135499    -0.91100
O1526       O  0.28942788  0.18954339  0.25161014    -0.77060
O1527       O  0.25009346  0.20160555  0.20645271    -0.86550
O1528       O  0.27139596  0.24265311  0.24825789    -0.86240
O1529       O  0.20718672  0.22709654  0.20543948    -0.73000
O1530       O  0.22733652  0.26469344  0.24603492    -0.85130
Zr1531     Zr  0.25004782  0.26207257  0.10346824     2.26420
Zr1532     Zr  0.22367170  0.20536537  0.14349065     2.06270
Zr1533     Zr  0.26396021  0.28266163  0.22309874     2.10050
Zr1534     Zr  0.28665591  0.21954560  0.18958102     1.78760
O1535       O  0.25039187  0.32087344  0.24639852    -0.93940
O1536       O  0.29736421  0.18382489  0.15129569    -0.41750
O1537       O  0.27872739  0.25922261  0.16297441    -0.78380
O1538       O  0.26085072  0.22284393  0.12631286    -0.97070
O1539       O  0.21361559  0.24470442  0.12318056    -0.90370
O1540       O  0.23566103  0.28530287  0.16373127    -0.93210
C1541       C  0.27858051  0.18450026  0.28940467     1.00540
C1542       C  0.25104716  0.26851201  0.33929428     1.13470
C1543       C  0.19669962  0.17926371  0.23668609     1.04250
O1544       O  0.23207736  0.16449944  0.12880967    -0.95370
O1545       O  0.23443002  0.20103493  0.06210260    -0.91110
O1546       O  0.24740004  0.23707072  0.03842387    -0.84260
C1547       C  0.24292632  0.21547789  0.03142628     1.10890
O1548       O  0.17119873  0.25437655  0.24396964    -0.97340
Zr1549     Zr  0.19993076  0.26685597  0.18616422     1.88940
O1550       O  0.21789242  0.28604642  0.07217217    -0.73990
O1551       O  0.18638144  0.20398059  0.10505912    -0.53250
O1552       O  0.15906073  0.27784833  0.18005959    -0.97930
O1553       O  0.20154844  0.30674847  0.21359395    -0.55150
O1554       O  0.18618883  0.27220400  0.10993400    -0.74510
C1555       C  0.19567965  0.28545401  0.07939678     0.97840
O1556       O  0.27657485  0.27164153  0.03981944    -0.63330
O1557       O  0.30411480  0.29015073  0.24456110    -0.58130
O1558       O  0.27150044  0.29768473  0.09448185    -0.94810
O1559       O  0.27980980  0.31190072  0.16361652    -0.93240
O1560       O  0.32152255  0.23161405  0.22923079    -0.93590
O1561       O  0.32027115  0.22400309  0.13859359    -0.92380
C1562       C  0.28043288  0.31320736  0.11928714     1.16680
H1563       H  0.28145630  0.24213341  0.27430687     0.32620
H1564       H  0.26890318  0.21516163  0.10201826     0.43480
H1565       H  0.23337079  0.30133524  0.15338715     0.37000
H1566       H  0.19189672  0.22111435  0.21346293     0.33480
H1567       H  0.30988673  0.17684231  0.17000729     0.25270
H1568       H  0.18344712  0.18708946  0.10059743     0.31210
H1569       H  0.15914452  0.29484984  0.17232474     0.37120
H1570       H  0.33001405  0.21685588  0.23558796     0.31580
H1571       H  0.30375248  0.30581607  0.25814702     0.30450
H1572       H  0.26475299  0.32951255  0.25418905     0.32130
H1573       H  0.18980787  0.30692344  0.23855279     0.31100
H1574       H  0.31393972  0.23130927  0.11047879     0.35100
H1575       H  0.28599728  0.25747418  0.03454359     0.27830
H1576       H  0.21103300  0.20577706  0.34663815     0.32070
H1577       H  0.17738798  0.26035121  0.27269483     0.34920
H1578       H  0.30690361  0.27917012  0.27054647     0.27530
H1579       H  0.26691707  0.27388976  0.01240339     0.40400
H1580       H  0.24102067  0.15891651  0.15548010     0.30450
H1581       H  0.28384118  0.17315132  0.15648671     0.38070
H1582       H  0.19487549  0.31679536  0.18922941     0.29920
H1583       H  0.17477480  0.20840925  0.12843865     0.29980
H1584       H  0.19340079  0.22302050  0.32273402     0.30250
C1585       C  0.23175038  0.27520115  0.46326361    -0.09930
C1586       C  0.25311220  0.27440424  0.48601386     0.06270
C1587       C  0.27384167  0.27518418  0.45919047    -0.03700
C1588       C  0.27296380  0.27558882  0.41124091    -0.08150
C1589       C  0.25159032  0.27474807  0.38856280     0.05380
C1590       C  0.23087182  0.27517498  0.41532987    -0.03170
Br1591     Br  0.20076111  0.27458324  0.38783190    -0.02870
H1592       H  0.21562042  0.27420412  0.48282050     0.09290
H1593       H  0.28909174  0.27490956  0.39175775     0.07310
Br1594     Br  0.30395956  0.27439540  0.48671115    -0.03300
C1595       C  0.24235617  0.20127426  0.90585576    -0.09930
C1596       C  0.26602705  0.20483172  0.89378191     0.06270
C1597       C  0.28208442  0.20812598  0.92878618    -0.03700
C1598       C  0.27427177  0.20912373  0.97417713    -0.08150
C1599       C  0.25040055  0.20725195  0.98588550     0.05380
C1600       C  0.23447606  0.20260610  0.95126935    -0.03170
Br1601     Br  0.20158461  0.20137436  0.96342095    -0.02870
H1602       H  0.22959632  0.19962703  0.87930720     0.09290
H1603       H  0.28677166  0.21310105  0.00018145     0.07310
Br1604     Br  0.31444219  0.21409968  0.91553781    -0.03300
C1605       C  0.21391364  0.35368663  0.84939701    -0.09930
C1606       C  0.19522242  0.36581567  0.82948474     0.06270
C1607       C  0.19029053  0.36059129  0.78312079    -0.03700
C1608       C  0.20288131  0.34346136  0.75977872    -0.08150
C1609       C  0.22094719  0.33085830  0.78009249     0.05380
C1610       C  0.22684007  0.33682589  0.82546271    -0.03170
Br1611     Br  0.25311661  0.32381812  0.85710077    -0.02870
H1612       H  0.21873957  0.35745870  0.88387812     0.09290
H1613       H  0.19799964  0.33955174  0.72537979     0.07310
Br1614     Br  0.16636142  0.37512974  0.74718240    -0.03300
C1615       C  0.17535933  0.32270317  0.08350637    -0.09930
C1616       C  0.18027275  0.30312220  0.05772613     0.06270
C1617       C  0.16790277  0.29967504  0.01730862    -0.03700
C1618       C  0.15250102  0.31709543  0.00118370    -0.08150
C1619       C  0.14987115  0.33790953  0.02508152     0.05380
C1620       C  0.16030343  0.33992110  0.06769610    -0.03170
Br1621     Br  0.15469877  0.36625823  0.10513706    -0.02870
H1622       H  0.18364665  0.32470600  0.11596136     0.09290
H1623       H  0.14417939  0.31521840  0.96864270     0.07310
Br1624     Br  0.17298426  0.27194869  0.98371195    -0.03300
C1625       C  0.34303743  0.34600261  0.80543876    -0.09930
C1626       C  0.35620017  0.34008194  0.84363164     0.06270
C1627       C  0.35478905  0.31723732  0.86292137    -0.03700
C1628       C  0.33938790  0.30092447  0.84450728    -0.08150
C1629       C  0.32538946  0.30753276  0.80759973     0.05380
C1630       C  0.32749112  0.33017265  0.78789203    -0.03170
Br1631     Br  0.30879001  0.34081219  0.73781763    -0.02870
H1632       H  0.34391988  0.36359477  0.79060394     0.09290
H1633       H  0.33847386  0.28318142  0.85858942     0.07310
Br1634     Br  0.37271205  0.30804143  0.91483635    -0.03300
C1635       C  0.24589442  0.45275104  0.89602836    -0.09930
C1636       C  0.23624402  0.45572983  0.93930389     0.06270
C1637       C  0.25055080  0.46228547  0.97518662    -0.03700
C1638       C  0.27466446  0.46434775  0.96791763    -0.08150
C1639       C  0.28455194  0.45982881  0.92515958     0.05380
C1640       C  0.26985869  0.45480086  0.88866641    -0.03170
Br1641     Br  0.28157387  0.45025633  0.82825718    -0.02870
H1642       H  0.23476181  0.44828164  0.86805114     0.09290
H1643       H  0.28580283  0.46793361  0.99636273     0.07310
Br1644     Br  0.23799778  0.46702850  0.03485879    -0.03300
C1645       C  0.30416217  0.37380735  0.07634171    -0.09930
C1646       C  0.31189861  0.36886267  0.03166241     0.06270
C1647       C  0.30871152  0.34588156  0.01694400    -0.03700
C1648       C  0.29934980  0.32848470  0.04672859    -0.08150
C1649       C  0.29201580  0.33306699  0.09183925     0.05380
C1650       C  0.29404672  0.35641581  0.10590051    -0.03170
Br1651     Br  0.28269301  0.36580078  0.16407671    -0.02870
H1652       H  0.30650544  0.39133374  0.08881314     0.09290
H1653       H  0.29811405  0.31093904  0.03409320     0.07310
Br1654     Br  0.31838286  0.33656104  0.95760103    -0.03300
C1655       C  0.21095853  0.13361831  0.51135671    -0.09930
C1656       C  0.18653355  0.13129679  0.51579741     0.06270
C1657       C  0.17487538  0.14750656  0.54372132    -0.03700
C1658       C  0.18731818  0.16414679  0.56807252    -0.08150
C1659       C  0.21168547  0.16608204  0.56519048     0.05380
C1660       C  0.22351070  0.15076306  0.53538765    -0.03170
Br1661     Br  0.25685361  0.15117089  0.52810585    -0.02870
H1662       H  0.22045380  0.12152289  0.49044644     0.09290
H1663       H  0.17763845  0.17597375  0.58927775     0.07310
Br1664     Br  0.14153558  0.14896723  0.54889499    -0.03300
C1665       C  0.15982207  0.12660057  0.26845372    -0.09930
C1666       C  0.14674723  0.13570849  0.30444374     0.06270
C1667       C  0.14699273  0.15978450  0.31195075    -0.03700
C1668       C  0.16250124  0.17405728  0.28692242    -0.08150
C1669       C  0.17779046  0.16441546  0.25481157     0.05380
C1670       C  0.17550675  0.14077337  0.24364289    -0.03170
Br1671     Br  0.19562087  0.12614694  0.20038455    -0.02870
H1672       H  0.15956860  0.10791324  0.26278232     0.09290
H1673       H  0.16362913  0.19249914  0.29450433     0.07310
Br1674     Br  0.12903797  0.17317788  0.35998530    -0.03300
C1675       C  0.33090453  0.17019318  0.56615676    -0.09930
C1676       C  0.32717979  0.16459178  0.61269826     0.06270
C1677       C  0.34183829  0.14794582  0.63418544    -0.03700
C1678       C  0.35747054  0.13539778  0.60757803    -0.08150
C1679       C  0.35900911  0.13979500  0.56059098     0.05380
C1680       C  0.34663991  0.15808295  0.54029361    -0.03170
Br1681     Br  0.34800912  0.16476403  0.47589534    -0.02870
H1682       H  0.32093532  0.18347745  0.54861810     0.09290
H1683       H  0.36699832  0.12092521  0.62287854     0.07310
Br1684     Br  0.34061254  0.14012189  0.69803137    -0.03300
C1685       C  0.26206824  0.02844658  0.49244178    -0.09930
C1686       C  0.27698178  0.02645650  0.45464303     0.06270
C1687       C  0.26732691  0.02486163  0.41096893    -0.03700
C1688       C  0.24317763  0.02636894  0.40557480    -0.08150
C1689       C  0.22841197  0.02905511  0.44325956     0.05380
C1690       C  0.23790413  0.02945611  0.48708296    -0.03170
Br1691     Br  0.21866547  0.03322844  0.54016254    -0.02870
H1692       H  0.26930101  0.03008291  0.52602192     0.09290
H1693       H  0.23595587  0.02615564  0.37176771     0.07310
Br1694     Br  0.28635144  0.02317571  0.35707861    -0.03300
C1695       C  0.30071846  0.14523519  0.38927498    -0.09930
C1696       C  0.30605753  0.12433301  0.36704617     0.06270
C1697       C  0.29965156  0.12307744  0.32059942    -0.03700
C1698       C  0.29102278  0.14275870  0.29672475    -0.08150
C1699       C  0.28710695  0.16403668  0.31797133     0.05380
C1700       C  0.29101749  0.16477510  0.36541589    -0.03170
Br1701     Br  0.28495015  0.19257860  0.39850831    -0.02870
H1702       H  0.30503686  0.14681477  0.42472524     0.09290
H1703       H  0.28708759  0.14131547  0.26100504     0.07310
Br1704     Br  0.30156927  0.09471247  0.28711052    -0.03300
C1705       C  0.78879007  0.25831840  0.15378023    -0.09930
C1706       C  0.77811772  0.23853776  0.13538532     0.06270
C1707       C  0.76990207  0.22024573  0.16522137    -0.03700
C1708       C  0.77059292  0.22300209  0.21201722    -0.08150
C1709       C  0.77957843  0.24349553  0.22995186     0.05380
C1710       C  0.78945299  0.26091899  0.20087499    -0.03170
Br1711     Br  0.80283377  0.28891170  0.22419977    -0.02870
H1712       H  0.79536323  0.27241346  0.13159753     0.09290
H1713       H  0.76314991  0.20946817  0.23455358     0.07310
Br1714     Br  0.75732932  0.19104017  0.14514081    -0.03300
C1715       C  0.74928186  0.25163588  0.70869651    -0.09930
C1716       C  0.73102892  0.23810911  0.72779376     0.06270
C1717       C  0.71080777  0.23444612  0.70200614    -0.03700
C1718       C  0.71007604  0.24328751  0.65691772    -0.08150
C1719       C  0.72887475  0.25648688  0.63829668     0.05380
C1720       C  0.74784915  0.26193477  0.66610872    -0.03170
Br1721     Br  0.77356372  0.28224620  0.64783584    -0.02870
H1722       H  0.76521731  0.25432740  0.72668631     0.09290
H1723       H  0.69558200  0.23861470  0.63570061     0.07310
Br1724     Br  0.68515243  0.21551901  0.72434981    -0.03300
C1725       C  0.01657843  0.38542406  0.85790033    -0.09930
C1726       C  0.01594698  0.40308299  0.82330471     0.06270
C1727       C  0.01625684  0.42677407  0.83587558    -0.03700
C1728       C  0.01723506  0.43193394  0.88167271    -0.08150
C1729       C  0.02548635  0.41465814  0.91227898     0.05380
C1730       C  0.02089315  0.39114516  0.90263184    -0.03170
Br1731     Br  0.02383434  0.36627658  0.94752628    -0.02870
H1732       H  0.01417892  0.36711579  0.85035762     0.09290
H1733       H  0.01834510  0.45025311  0.89030850     0.07310
Br1734     Br  0.01939902  0.45281470  0.79308225    -0.03300
C1735       C  0.86764971  0.27206486  0.85994753    -0.09930
C1736       C  0.84511882  0.28124997  0.85531452     0.06270
C1737       C  0.84151137  0.29866274  0.82099534    -0.03700
C1738       C  0.85960061  0.30570077  0.79100895    -0.08150
C1739       C  0.88212277  0.29668395  0.79549429     0.05380
C1740       C  0.88616596  0.28012286  0.83129919    -0.03170
Br1741     Br  0.91671239  0.26797881  0.84223111    -0.02870
H1742       H  0.87079097  0.25835755  0.88531277     0.09290
H1743       H  0.85638308  0.31950941  0.76585032     0.07310
Br1744     Br  0.81250237  0.31490820  0.81591083    -0.03300
C1745       C  0.83850458  0.34672056  0.58855953    -0.09930
C1746       C  0.85470203  0.33244450  0.61111179     0.06270
C1747       C  0.85088818  0.30791990  0.61374208    -0.03700
C1748       C  0.83304226  0.29806400  0.58917085    -0.08150
C1749       C  0.81816885  0.31212355  0.56297828     0.05380
C1750       C  0.82008957  0.33680669  0.56507116    -0.03170
Br1751     Br  0.79801488  0.35803355  0.53825700    -0.02870
H1752       H  0.84053370  0.36562464  0.58798014     0.09290
H1753       H  0.83132391  0.27913089  0.58954748     0.07310
Br1754     Br  0.86860070  0.28650858  0.65094017    -0.03300
C1755       C  0.00756895  0.06201385  0.47657728    -0.09930
C1756       C  0.01827536  0.07881724  0.44707954     0.06270
C1757       C  0.01618101  0.10231289  0.45888790    -0.03700
C1758       C  0.01400954  0.10730113  0.50473886    -0.08150
C1759       C  0.01186208  0.08896145  0.53788739     0.05380
C1760       C  0.00808396  0.06588636  0.52316078    -0.03170
Br1761     Br  0.00597565  0.03872523  0.56353735    -0.02870
H1762       H  0.00610347  0.04403922  0.46590577     0.09290
H1763       H  0.01469518  0.12546128  0.51421106     0.07310
Br1764     Br  0.02143250  0.12760157  0.41550015    -0.03300
C1765       C  0.82755519  0.18580995  0.76231399    -0.09930
C1766       C  0.81994245  0.17534004  0.80365991     0.06270
C1767       C  0.82716394  0.15197090  0.81463993    -0.03700
C1768       C  0.84260809  0.14064117  0.78586062    -0.08150
C1769       C  0.85142918  0.15201078  0.74677792     0.05380
C1770       C  0.84322144  0.17442945  0.73414056    -0.03170
Br1771     Br  0.85314794  0.19057624  0.67917541    -0.02870
H1772       H  0.82191960  0.20326020  0.75227291     0.09290
H1773       H  0.84903449  0.12342958  0.79572355     0.07310
Br1774     Br  0.81850287  0.13403708  0.86876640    -0.03300
C1775       C  0.99751657  0.25625865  0.68975571    -0.09930
C1776       C  0.97600776  0.26760951  0.69632352     0.06270
C1777       C  0.95546953  0.25388882  0.69914308    -0.03700
C1778       C  0.95612177  0.23051402  0.69059464    -0.08150
C1779       C  0.97708042  0.21868884  0.68456257     0.05380
C1780       C  0.99819639  0.23163147  0.68467162    -0.03170
Br1781     Br  0.02779883  0.21664339  0.67900513    -0.02870
H1782       H  0.01351607  0.26644367  0.68761985     0.09290
H1783       H  0.93954603  0.22138831  0.68926328     0.07310
Br1784     Br  0.92505220  0.26499958  0.71493285    -0.03300
C1785       C  0.85920934  0.18151435  0.55879237    -0.09930
C1786       C  0.87962846  0.19395582  0.56906152     0.06270
C1787       C  0.88319265  0.21632779  0.54837497    -0.03700
C1788       C  0.86633239  0.22581728  0.51849244    -0.08150
C1789       C  0.84628004  0.21281552  0.50737646     0.05380
C1790       C  0.84280478  0.19062231  0.52857160    -0.03170
Br1791     Br  0.81550328  0.17204351  0.51763268    -0.02870
H1792       H  0.85644014  0.16397738  0.57314929     0.09290
H1793       H  0.86872855  0.24343798  0.50442770     0.07310
Br1794     Br  0.91093583  0.23402754  0.55936391    -0.03300
C1795       C  0.47241911  0.11140509  0.29460946    -0.09930
C1796       C  0.49392511  0.10023151  0.29280103     0.06270
C1797       C  0.50478943  0.09260616  0.33327641    -0.03700
C1798       C  0.49238848  0.09274714  0.37370825    -0.08150
C1799       C  0.46978700  0.10115806  0.37426567     0.05380
C1800       C  0.46047656  0.11244682  0.33552017    -0.03170
Br1801     Br  0.43055278  0.12714837  0.33502676    -0.02870
H1802       H  0.46484786  0.11907820  0.26412696     0.09290
H1803       H  0.49971947  0.08473839  0.40399138     0.07310
Br1804     Br  0.53655591  0.08310604  0.33728822    -0.03300
C1805       C  0.65966378  0.21979385  0.28351675    -0.09930
C1806       C  0.68025048  0.20787924  0.29602086     0.06270
C1807       C  0.68433122  0.18590416  0.27658073    -0.03700
C1808       C  0.66762849  0.17569986  0.24842068    -0.08150
C1809       C  0.64650709  0.18691983  0.23793425     0.05380
C1810       C  0.64283846  0.20943375  0.25532296    -0.03170
Br1811     Br  0.61430830  0.22579391  0.24419952    -0.02870
H1812       H  0.65615386  0.23683350  0.29726334     0.09290
H1813       H  0.67079055  0.15830717  0.23595998     0.07310
Br1814     Br  0.71283047  0.16922287  0.28622666    -0.03300
C1815       C  0.67071859  0.17905122  0.02006452    -0.09930
C1816       C  0.68324018  0.16615281  0.98944269     0.06270
C1817       C  0.68469618  0.14167384  0.99323956    -0.03700
C1818       C  0.67148338  0.13008391  0.02700550    -0.08150
C1819       C  0.65847834  0.14331330  0.05750718     0.05380
C1820       C  0.65964488  0.16792224  0.05572286    -0.03170
Br1821     Br  0.64689583  0.18793284  0.10010319    -0.02870
H1822       H  0.67086136  0.19810247  0.01789409     0.09290
H1823       H  0.67043988  0.11110246  0.02806761     0.07310
Br1824     Br  0.70352436  0.12398861  0.95252985    -0.03300
C1825       C  0.47405584  0.38918531  0.07476397    -0.09930
C1826       C  0.48947605  0.40738345  0.08472211     0.06270
C1827       C  0.49599597  0.42384289  0.05010405    -0.03700
C1828       C  0.48915926  0.42026816  0.00570275    -0.08150
C1829       C  0.47406888  0.40179322  0.99564978     0.05380
C1830       C  0.46695102  0.38571971  0.03079048    -0.03170
Br1831     Br  0.44807415  0.35819205  0.02336189    -0.02870
H1832       H  0.46878298  0.37642112  0.10099452     0.09290
H1833       H  0.49413436  0.43317932  0.97953370     0.07310
Br1834     Br  0.51170875  0.45291951  0.06091762    -0.03300
C1835       C  0.65452357  0.32272441  0.39954825    -0.09930
C1836       C  0.67792663  0.32566413  0.38655667     0.06270
C1837       C  0.68491343  0.34417585  0.35691158    -0.03700
C1838       C  0.66793795  0.35677618  0.33410256    -0.08150
C1839       C  0.64446424  0.35074334  0.34112637     0.05380
C1840       C  0.63758242  0.33523011  0.37667608    -0.03170
Br1841     Br  0.60549208  0.32915472  0.39243278    -0.02870
H1842       H  0.64923775  0.30907285  0.42402081     0.09290
H1843       H  0.67311849  0.36955333  0.30783281     0.07310
Br1844     Br  0.71703841  0.35183778  0.34460965    -0.03300
C1845       C  0.56574728  0.26520635  0.15283334    -0.09930
C1846       C  0.54622608  0.27355506  0.17600400     0.06270
C1847       C  0.52810829  0.25780429  0.18829609    -0.03700
C1848       C  0.53041508  0.23378693  0.17935409    -0.08150
C1849       C  0.55066650  0.22501768  0.15797632     0.05380
C1850       C  0.56819356  0.24151871  0.14346344    -0.03170
Br1851     Br  0.59689573  0.23411068  0.11264969    -0.02870
H1852       H  0.57974832  0.27729652  0.14308576     0.09290
H1853       H  0.51657419  0.22187367  0.19053827     0.07310
Br1854     Br  0.50081152  0.26807582  0.21994416    -0.03300
C1855       C  0.65308225  0.28881187  0.03969365    -0.09930
C1856       C  0.67261354  0.27879683  0.06046100     0.06270
C1857       C  0.67318725  0.27899705  0.10879897    -0.03700
C1858       C  0.65575713  0.29088368  0.13428557    -0.08150
C1859       C  0.63675472  0.30208890  0.11289492     0.05380
C1860       C  0.63519730  0.29947231  0.06492268    -0.03170
Br1861     Br  0.60838579  0.30890459  0.03075222    -0.02870
H1862       H  0.65147342  0.28801442  0.00313746     0.09290
H1863       H  0.65757331  0.29202021  0.17071311     0.07310
Br1864     Br  0.69815271  0.26444954  0.14154957    -0.03300
C1865       C  0.77658329  0.71192867  0.46865514    -0.09930
C1866       C  0.75546135  0.71038376  0.49326823     0.06270
C1867       C  0.73454585  0.70859916  0.46852169    -0.03700
C1868       C  0.73489469  0.70950873  0.42062028    -0.08150
C1869       C  0.75587035  0.71278709  0.39609224     0.05380
C1870       C  0.77690586  0.71328747  0.42073260    -0.03170
Br1871     Br  0.80658187  0.71682788  0.39036727    -0.02870
H1872       H  0.79279251  0.71380632  0.48670340     0.09290
H1873       H  0.71855132  0.70929261  0.40261882     0.07310
Br1874     Br  0.70477350  0.70658105  0.49889867    -0.03300
C1875       C  0.72462157  0.77092717  0.92810604    -0.09930
C1876       C  0.74027203  0.77893593  0.89416580     0.06270
C1877       C  0.76229941  0.78751667  0.90719538    -0.03700
C1878       C  0.76923282  0.78563440  0.95294228    -0.08150
C1879       C  0.75430538  0.77532886  0.98617996     0.05380
C1880       C  0.73127277  0.76942494  0.97366892    -0.03170
Br1881     Br  0.70826130  0.75818739  0.01725111    -0.02870
H1882       H  0.70768316  0.76420851  0.91876318     0.09290
H1883       H  0.78680951  0.79062341  0.96180755     0.07310
Br1884     Br  0.78427903  0.79959668  0.86262820    -0.03300
C1885       C  0.00582269  0.51911777  0.01771459    -0.09930
C1886       C  0.98690953  0.50379991  0.00971371     0.06270
C1887       C  0.99265887  0.47986832  0.00422098    -0.03700
C1888       C  0.01614411  0.47191651  0.00671689    -0.08150
C1889       C  0.03514739  0.48731952  0.01355049     0.05380
C1890       C  0.02939314  0.51126943  0.01875737    -0.03170
Br1891     Br  0.05356734  0.53438700  0.02330871    -0.02870
H1892       H  0.00245705  0.53770013  0.02007055     0.09290
H1893       H  0.01970411  0.45369800  0.00013394     0.07310
Br1894     Br  0.96897149  0.45745692  0.99016758    -0.03300
C1895       C  0.89906801  0.48158983  0.72895810    -0.09930
C1896       C  0.89491212  0.45806963  0.74042104     0.06270
C1897       C  0.88766424  0.45107664  0.78453967    -0.03700
C1898       C  0.88923580  0.46691535  0.81869726    -0.08150
C1899       C  0.89710854  0.48958108  0.80846809     0.05380
C1900       C  0.89987618  0.49769209  0.76320300    -0.03170
Br1901     Br  0.90575893  0.52978314  0.74648453    -0.02870
H1902       H  0.90433258  0.48687557  0.69464107     0.09290
H1903       H  0.88538234  0.46127758  0.85352747     0.07310
Br1904     Br  0.88072517  0.41909393  0.80175438    -0.03300
C1905       C  0.79627386  0.62837040  0.85170765    -0.09930
C1906       C  0.82035223  0.63244809  0.85532321     0.06270
C1907       C  0.83060831  0.65047304  0.82728664    -0.03700
C1908       C  0.81749451  0.66272878  0.79478499    -0.08150
C1909       C  0.79364595  0.65841520  0.79035798     0.05380
C1910       C  0.78285940  0.64159770  0.82041616    -0.03170
Br1911     Br  0.74984325  0.63599946  0.81950799    -0.02870
H1912       H  0.78800333  0.61451735  0.87222730     0.09290
H1913       H  0.82578009  0.67666929  0.77446889     0.07310
Br1914     Br  0.86249603  0.66011140  0.83330321    -0.03300
C1915       C  0.86187179  0.64900002  0.08229862    -0.09930
C1916       C  0.86718934  0.65474383  0.03707215     0.06270
C1917       C  0.85510995  0.67295787  0.01470557    -0.03700
C1918       C  0.83684724  0.68423215  0.03709096    -0.08150
C1919       C  0.82990006  0.67679109  0.08115814     0.05380
C1920       C  0.84275009  0.65876961  0.10366413    -0.03170
Br1921     Br  0.83374146  0.64356347  0.16064627    -0.02870
H1922       H  0.87041362  0.63420684  0.09885319     0.09290
H1923       H  0.82775323  0.69834244  0.01964917     0.07310
Br1924     Br  0.86202023  0.68143933  0.95255673    -0.03300
C1925       C  0.51817287  0.51151277  0.83783927    -0.09930
C1926       C  0.53607494  0.49798520  0.85827821     0.06270
C1927       C  0.52934759  0.47545902  0.87602561    -0.03700
C1928       C  0.50594002  0.46764395  0.87548756    -0.08150
C1929       C  0.48782663  0.48148961  0.85764730     0.05380
C1930       C  0.49441991  0.50352662  0.83758451    -0.03170
Br1931     Br  0.47119294  0.52414829  0.81345150    -0.02870
H1932       H  0.52227568  0.52904535  0.82493157     0.09290
H1933       H  0.50162479  0.45082711  0.89165271     0.07310
Br1934     Br  0.55129632  0.45465864  0.90457709    -0.03300
C1935       C  0.60174380  0.49272753  0.10409631    -0.09930
C1936       C  0.61982730  0.48119281  0.08130151     0.06270
C1937       C  0.63753760  0.47048028  0.10698927    -0.03700
C1938       C  0.63485424  0.46862417  0.15408090    -0.08150
C1939       C  0.61342833  0.47468703  0.17417326     0.05380
C1940       C  0.59928313  0.49071846  0.15098697    -0.03170
Br1941     Br  0.57240227  0.50376159  0.18037535    -0.02870
H1942       H  0.58956303  0.50334333  0.08547248     0.09290
H1943       H  0.64711639  0.45785678  0.17285727     0.07310
Br1944     Br  0.66392011  0.45549500  0.07988894    -0.03300
C1945       C  0.66668082  0.66529241  0.90159483    -0.09930
C1946       C  0.64892000  0.65312846  0.87937802     0.06270
C1947       C  0.64350878  0.65965539  0.83453497    -0.03700
C1948       C  0.65704552  0.67665015  0.81142415    -0.08150
C1949       C  0.67645625  0.68723364  0.83189662     0.05380
C1950       C  0.68040012  0.68232971  0.87837325    -0.03170
Br1951     Br  0.70439446  0.69765499  0.91161711    -0.02870
H1952       H  0.67105934  0.66020862  0.93618734     0.09290
H1953       H  0.65337695  0.68009710  0.77587874     0.07310
Br1954     Br  0.62064059  0.64296781  0.80071372    -0.03300
C1955       C  0.75097410  0.53766861  0.90116087    -0.09930
C1956       C  0.73634193  0.53581716  0.93959830     0.06270
C1957       C  0.74630332  0.53555940  0.98317148    -0.03700
C1958       C  0.77050048  0.53791462  0.98770944    -0.08150
C1959       C  0.78510532  0.53998747  0.94923081     0.05380
C1960       C  0.77519708  0.53942994  0.90565712    -0.03170
Br1961     Br  0.79385368  0.54292808  0.85122913    -0.02870
H1962       H  0.74348513  0.53836587  0.86756313     0.09290
H1963       H  0.77790917  0.53839443  0.02132924     0.07310
Br1964     Br  0.72749355  0.53358219  0.03749402    -0.03300
C1965       C  0.71597974  0.61986106  0.05929557    -0.09930
C1966       C  0.69245627  0.62251039  0.04742538     0.06270
C1967       C  0.67970710  0.64054262  0.06834839    -0.03700
C1968       C  0.69018241  0.65515213  0.10024861    -0.08150
C1969       C  0.71361364  0.65245544  0.11251014     0.05380
C1970       C  0.72658655  0.63481943  0.09069002    -0.03170
Br1971     Br  0.75917601  0.63087952  0.10233725    -0.02870
H1972       H  0.72605626  0.60588035  0.04476376     0.09290
H1973       H  0.68020363  0.66941126  0.11402112     0.07310
Br1974     Br  0.64789613  0.64655957  0.05262711    -0.03300
C1975       C  0.98971788  0.00169793  0.34132414    -0.09930
C1976       C  0.98486695  0.97767686  0.34990800     0.06270
C1977       C  0.00418014  0.96297512  0.35858622    -0.03700
C1978       C  0.02709775  0.97211160  0.36094032    -0.08150
C1979       C  0.03196741  0.99616097  0.35396503     0.05380
C1980       C  0.01284787  0.01086505  0.34305218    -0.03170
Br1981     Br  0.01717683  0.04405696  0.33496909    -0.02870
H1982       H  0.97536744  0.01364504  0.33595175     0.09290
H1983       H  0.04112722  0.96039729  0.37032569     0.07310
Br1984     Br  0.99979443  0.93007338  0.37015567    -0.03300
C1985       C  0.88340976  0.00285352  0.57957939    -0.09930
C1986       C  0.90432161  0.99476636  0.56014940     0.06270
C1987       C  0.92449163  0.99358813  0.58701727    -0.03700
C1988       C  0.92317294  0.00058200  0.63168123    -0.08150
C1989       C  0.90501181  0.01557735  0.64368920     0.05380
C1990       C  0.88362693  0.01329039  0.62164069    -0.03170
Br1991     Br  0.85548880  0.02724895  0.64359178    -0.02870
H1992       H  0.86714479  0.00211349  0.56140239     0.09290
H1993       H  0.93922516  0.00097453  0.65073923     0.07310
Br1994     Br  0.95532700  0.98899444  0.56288862    -0.03300
C1995       C  0.81597274  0.81731616  0.54531828    -0.09930
C1996       C  0.79207635  0.81822718  0.55530406     0.06270
C1997       C  0.77886660  0.83620558  0.53351168    -0.03700
C1998       C  0.78995781  0.85340623  0.50477216    -0.08150
C1999       C  0.81414618  0.85286916  0.49639517     0.05380
C2000       C  0.82685634  0.83403174  0.51616293    -0.03170
Br2001     Br  0.85969005  0.83043654  0.50531534    -0.02870
H2002       H  0.82638117  0.80346241  0.56049389     0.09290
H2003       H  0.77988097  0.86789463  0.49110852     0.07310
Br2004     Br  0.74605119  0.83947898  0.54510677    -0.03300
C2005       C  0.85597247  0.84346517  0.26195516    -0.09930
C2006       C  0.85215975  0.84281260  0.30900774     0.06270
C2007       C  0.83322939  0.83030632  0.32798449    -0.03700
C2008       C  0.81680340  0.82098371  0.29994563    -0.08150
C2009       C  0.81984092  0.82181775  0.25256431     0.05380
C2010       C  0.84014689  0.83266486  0.23337527    -0.03170
Br2011     Br  0.84653354  0.83546438  0.16919373    -0.02870
H2012       H  0.87028931  0.85377794  0.24731018     0.09290
H2013       H  0.80148873  0.81303790  0.31586735     0.07310
Br2014     Br  0.82795935  0.82722663  0.39231512    -0.03300
C2015       C  0.52476869  0.00965730  0.49433766    -0.09930
C2016       C  0.52943361  0.98569010  0.50262758     0.06270
C2017       C  0.50982118  0.97093220  0.51231389    -0.03700
C2018       C  0.48668531  0.97996032  0.51332167    -0.08150
C2019       C  0.48204446  0.00391368  0.50422319     0.05380
C2020       C  0.50171359  0.01862927  0.49503132    -0.03170
Br2021     Br  0.49772936  0.05128366  0.48059729    -0.02870
H2022       H  0.53909248  0.02140269  0.48510163     0.09290
H2023       H  0.47217718  0.96791056  0.51878269     0.07310
Br2024     Br  0.51375168  0.93774436  0.52035082    -0.03300
C2025       C  0.62316485  0.00319422  0.25727179    -0.09930
C2026       C  0.60427669  0.00034069  0.28783410     0.06270
C2027       C  0.58130277  0.00234616  0.27192446    -0.03700
C2028       C  0.57779551  0.00706108  0.22629820    -0.08150
C2029       C  0.59644296  0.01555176  0.19912351     0.05380
C2030       C  0.61935894  0.01084845  0.21278154    -0.03170
Br2031     Br  0.64574072  0.01549681  0.17271680    -0.02870
H2032       H  0.64084353  0.99975282  0.26797361     0.09290
H2033       H  0.55995870  0.00902709  0.21520189     0.07310
Br2034     Br  0.55408941  0.00294898  0.31119069    -0.03300
C2035       C  0.65352801  0.85174385  0.60849177    -0.09930
C2036       C  0.65471913  0.85048685  0.56119662     0.06270
C2037       C  0.66753247  0.83317177  0.54026037    -0.03700
C2038       C  0.68129603  0.81880219  0.56638245    -0.08150
C2039       C  0.68222457  0.82093887  0.61394428     0.05380
C2040       C  0.66692436  0.83665477  0.63544695    -0.03170
Br2041     Br  0.66331415  0.83888458  0.70010887    -0.02870
H2042       H  0.64312009  0.86514713  0.62418546     0.09290
H2043       H  0.69180319  0.80637220  0.54841307     0.07310
Br2044     Br  0.66804990  0.82963032  0.47549147    -0.03300
C2045       C  0.74710103  0.96565215  0.46384110    -0.09930
C2046       C  0.73248983  0.96423260  0.42606587     0.06270
C2047       C  0.74283673  0.96303777  0.38243195    -0.03700
C2048       C  0.76722171  0.96187556  0.37751339    -0.08150
C2049       C  0.78179827  0.96242820  0.41547854     0.05380
C2050       C  0.77149927  0.96505244  0.45882524    -0.03170
Br2051     Br  0.78986361  0.96498631  0.51282784    -0.02870
H2052       H  0.73946513  0.96609301  0.49766788     0.09290
H2053       H  0.77479070  0.95948959  0.34406147     0.07310
Br2054     Br  0.72432717  0.96015723  0.32905743    -0.03300
C2055       C  0.71000581  0.84395352  0.38196929    -0.09930
C2056       C  0.70242409  0.86372741  0.35666681     0.06270
C2057       C  0.70600062  0.86343223  0.30868201    -0.03700
C2058       C  0.71369142  0.84313514  0.28724917    -0.08150
C2059       C  0.71957430  0.82273897  0.31206356     0.05380
C2060       C  0.71878685  0.82382594  0.36034959    -0.03170
Br2061     Br  0.72815022  0.79796690  0.39889168    -0.02870
H2062       H  0.70831138  0.84372760  0.41859854     0.09290
H2063       H  0.71554034  0.84351283  0.25055205     0.07310
Br2064     Br  0.70171909  0.89060950  0.26961674    -0.03300
C2065       C  0.24718328  0.73525753  0.16177486    -0.09930
C2066       C  0.22777570  0.74683552  0.14382540     0.06270
C2067       C  0.20753993  0.74795479  0.17178543    -0.03700
C2068       C  0.20772482  0.73838495  0.21697048    -0.08150
C2069       C  0.22753674  0.72671306  0.23439288     0.05380
C2070       C  0.24707121  0.72452660  0.20456033    -0.03170
Br2071     Br  0.27521409  0.70724552  0.21716851    -0.02870
H2072       H  0.26310293  0.73412384  0.14203437     0.09290
H2073       H  0.19256123  0.74054873  0.23870713     0.07310
Br2074     Br  0.18002771  0.76364353  0.15134726    -0.03300
C2075       C  0.29270115  0.73573809  0.70813716    -0.09930
C2076       C  0.27783501  0.75208936  0.72876898     0.06270
C2077       C  0.26775263  0.76953440  0.69968672    -0.03700
C2078       C  0.27089565  0.76914248  0.65254544    -0.08150
C2079       C  0.28416700  0.75194592  0.63194772     0.05380
C2080       C  0.29575352  0.73549124  0.66026416    -0.03170
Br2081     Br  0.31449009  0.71145286  0.63458135    -0.02870
H2082       H  0.30099632  0.72233383  0.72895149     0.09290
H2083       H  0.26166626  0.78175077  0.63131409     0.07310
Br2084     Br  0.24929504  0.79503866  0.71988695    -0.03300
C2085       C  0.02095043  0.49927290  0.59350480    -0.09930
C2086       C  0.00628231  0.51824475  0.60399347     0.06270
C2087       C  0.98323734  0.51266259  0.61842265    -0.03700
C2088       C  0.97555561  0.48914263  0.62321132    -0.08150
C2089       C  0.99039915  0.47013990  0.61457199     0.05380
C2090       C  0.01327805  0.47556674  0.59878312    -0.03170
Br2091     Br  0.03561065  0.45120317  0.59039717    -0.02870
H2092       H  0.03908495  0.50279000  0.58489160     0.09290
H2093       H  0.95809843  0.48564550  0.63636995     0.07310
Br2094     Br  0.96222247  0.53673202  0.63685654    -0.03300
C2095       C  0.98440760  0.57206868  0.81011167    -0.09930
C2096       C  0.97787722  0.59245668  0.78601083     0.06270
C2097       C  0.96820907  0.61102723  0.81003657    -0.03700
C2098       C  0.96781408  0.60990626  0.85723192    -0.08150
C2099       C  0.97545782  0.58973282  0.88123588     0.05380
C2100       C  0.98534056  0.57141630  0.85727361    -0.03170
Br2101     Br  0.00103997  0.54560221  0.88710034    -0.02870
H2102       H  0.99029137  0.55702989  0.79219264     0.09290
H2103       H  0.96001685  0.62425015  0.87490460     0.07310
Br2104     Br  0.95403134  0.63753734  0.78003209    -0.03300
C2105       C  0.12993383  0.51766935  0.78488872    -0.09930
C2106       C  0.12031990  0.52514624  0.82605666     0.06270
C2107       C  0.10188963  0.54086096  0.82611876    -0.03700
C2108       C  0.09027056  0.54522704  0.78603319    -0.08150
C2109       C  0.09713125  0.53430861  0.74583446     0.05380
C2110       C  0.11812149  0.52181645  0.74450630    -0.03170
Br2111     Br  0.12913010  0.50669497  0.69100780    -0.02870
H2112       H  0.14436192  0.50549419  0.78499965     0.09290
H2113       H  0.07516329  0.55621898  0.78726070     0.07310
Br2114     Br  0.08966273  0.55294273  0.88173185    -0.03300
C2115       C  0.15157559  0.69573686  0.74290215    -0.09930
C2116       C  0.14008447  0.67607661  0.76335332     0.06270
C2117       C  0.14721224  0.66940384  0.80836211    -0.03700
C2118       C  0.16460776  0.68175274  0.83050773    -0.08150
C2119       C  0.17594761  0.70134158  0.81076610     0.05380
C2120       C  0.16904774  0.70843359  0.76601957    -0.03170
Br2121     Br  0.18264191  0.73503954  0.73381723    -0.02870
H2122       H  0.14683327  0.70147605  0.70891530     0.09290
H2123       H  0.16910692  0.67587277  0.86457556     0.07310
Br2124     Br  0.13503380  0.64346367  0.84492082    -0.03300
C2125       C  0.16914947  0.64215035  0.58875973    -0.09930
C2126       C  0.15468256  0.62757507  0.56440561     0.06270
C2127       C  0.15484864  0.62912505  0.51672994    -0.03700
C2128       C  0.16856505  0.64638589  0.49427071    -0.08150
C2129       C  0.18049805  0.66330162  0.51928032     0.05380
C2130       C  0.17990508  0.66128261  0.56744466    -0.03170
Br2131     Br  0.18769877  0.68589565  0.60804573    -0.02870
H2132       H  0.16812571  0.64153285  0.62564327     0.09290
H2133       H  0.16869451  0.64741513  0.45747754     0.07310
Br2134     Br  0.13457817  0.60994810  0.48198856    -0.03300
C2135       C  0.01333156  0.01476316  0.69195345    -0.09930
C2136       C  0.99611523  0.02062925  0.72372427     0.06270
C2137       C  0.98979084  0.00316411  0.75701908    -0.03700
C2138       C  0.00000614  0.98033839  0.75647592    -0.08150
C2139       C  0.01631634  0.97412293  0.72231119     0.05380
C2140       C  0.02304306  0.99236202  0.69033867    -0.03170
Br2141     Br  0.04503909  0.98897746  0.64103736    -0.02870
H2142       H  0.01871749  0.02775113  0.66623085     0.09290
H2143       H  0.99434742  0.96717470  0.78155462     0.07310
Br2144     Br  0.96610747  0.00917543  0.80147287    -0.03300
C2145       C  0.10720405  0.99636702  0.60128594    -0.09930
C2146       C  0.11570880  0.98216575  0.56634932     0.06270
C2147       C  0.13240046  0.96484044  0.57696659    -0.03700
C2148       C  0.13768501  0.96037347  0.62245310    -0.08150
C2149       C  0.12297630  0.96940340  0.65590509     0.05380
C2150       C  0.11167757  0.99045707  0.64638351    -0.03170
Br2151     Br  0.09727984  0.00750016  0.69411049    -0.02870
H2152       H  0.09613928  0.01125852  0.59394928     0.09290
H2153       H  0.14828954  0.94521323  0.63068866     0.07310
Br2154     Br  0.14558183  0.94418007  0.53318843    -0.03300
C2155       C  0.99717512  0.88673363  0.46595787    -0.09930
C2156       C  0.97477895  0.87748680  0.47287261     0.06270
C2157       C  0.96772125  0.87000449  0.51676211    -0.03700
C2158       C  0.98027361  0.87733134  0.55367705    -0.08150
C2159       C  0.00103128  0.89025128  0.54727235     0.05380
C2160       C  0.01036046  0.89350185  0.50276319    -0.03170
Br2161     Br  0.04031574  0.90733326  0.48874265    -0.02870
H2162       H  0.00319390  0.89127388  0.43188593     0.09290
H2163       H  0.97342635  0.87327773  0.58750625     0.07310
Br2164     Br  0.93869525  0.85393902  0.52864265    -0.03300
C2165       C  0.15530238  0.85252474  0.85154930    -0.09930
C2166       C  0.14243249  0.84050440  0.81921336     0.06270
C2167       C  0.14301852  0.81581320  0.81865238    -0.03700
C2168       C  0.15472586  0.80354521  0.85172866    -0.08150
C2169       C  0.16850881  0.81522344  0.88235967     0.05380
C2170       C  0.16894549  0.83987041  0.88272070    -0.03170
Br2171     Br  0.18890347  0.85652534  0.92250390    -0.02870
H2172       H  0.15498459  0.87149568  0.85210358     0.09290
H2173       H  0.15521995  0.78455394  0.85029824     0.07310
Br2174     Br  0.13131505  0.79730630  0.77045345    -0.03300
C2175       C  0.06724692  0.75821896  0.66513472    -0.09930
C2176       C  0.04580150  0.76979471  0.66815983     0.06270
C2177       C  0.02520321  0.75612477  0.66849015    -0.03700
C2178       C  0.02657141  0.73137479  0.66672269    -0.08150
C2179       C  0.04830732  0.71979929  0.66485035     0.05380
C2180       C  0.06882163  0.73391245  0.66439393    -0.03170
Br2181     Br  0.10023727  0.72218368  0.66668972    -0.02870
H2182       H  0.08335853  0.76829792  0.66478486     0.09290
H2183       H  0.01057230  0.72117053  0.66739820     0.07310
Br2184     Br  0.99513614  0.77020962  0.67424163    -0.03300
C2185       C  0.18506589  0.80189940  0.58497800    -0.09930
C2186       C  0.18020952  0.78017105  0.56607243     0.06270
C2187       C  0.15910133  0.76859704  0.57927337    -0.03700
C2188       C  0.14269424  0.77962133  0.60779150    -0.08150
C2189       C  0.14717978  0.80191828  0.62505926     0.06340
C2190       C  0.16905806  0.81252064  0.61441234    -0.03170
Br2191     Br  0.17732903  0.84249580  0.63754295    -0.02870
H2192       H  0.20139427  0.81077754  0.57661371     0.09290
H2193       H  0.12581783  0.77141181  0.61402226     0.07310
Br2194     Br  0.15092192  0.73864559  0.55585721    -0.03300
C2195       C  0.53340633  0.87783046  0.31045274    -0.09930
C2196       C  0.51270195  0.89064562  0.30969031     0.06270
C2197       C  0.50240022  0.89726145  0.35111311    -0.03700
C2198       C  0.51474701  0.89467716  0.39110162    -0.08150
C2199       C  0.53688715  0.88481777  0.39045490     0.05380
C2200       C  0.54513737  0.87415457  0.35086343    -0.03170
Br2201     Br  0.57392748  0.85730797  0.34823741    -0.02870
H2202       H  0.54056965  0.87081889  0.27944878     0.09290
H2203       H  0.50806580  0.90236870  0.42185525     0.07310
Br2204     Br  0.47128387  0.90840083  0.35660568    -0.03300
C2205       C  0.38181542  0.98759577  0.28415191    -0.09930
C2206       C  0.39258422  0.97723736  0.32200059     0.06270
C2207       C  0.40637246  0.95748079  0.31848726    -0.03700
C2208       C  0.41115911  0.94929728  0.27579788    -0.08150
C2209       C  0.40238994  0.96099296  0.23719788     0.05380
C2210       C  0.38653566  0.97935230  0.24127686    -0.03170
Br2211     Br  0.37283203  0.99485874  0.18954495    -0.02870
H2212       H  0.37111332  0.00304015  0.28771922     0.09290
H2213       H  0.42225255  0.93425031  0.27296368     0.07310
Br2214     Br  0.42059341  0.94316337  0.37083284    -0.03300
C2215       C  0.50741968  0.98464031  0.07001194    -0.09930
C2216       C  0.49224853  0.97722053  0.10627458     0.06270
C2217       C  0.48525518  0.99506286  0.13633515    -0.03700
C2218       C  0.49345712  0.01818709  0.13133206    -0.08150
C2219       C  0.50988214  0.02540051  0.09799829     0.05380
C2220       C  0.51639280  0.00824865  0.06608630    -0.03170
Br2221     Br  0.53852802  0.01574102  0.01857233    -0.02870
H2222       H  0.51328645  0.97186271  0.04599850     0.09290
H2223       H  0.48762620  0.03067667  0.15603070     0.07310
Br2224     Br  0.46473360  0.99021243  0.18737405    -0.03300
C2225       C  0.37092324  0.78301722  0.27429360    -0.09930
C2226       C  0.36512252  0.80637099  0.26266453     0.06270
C2227       C  0.34523250  0.81586577  0.28441861    -0.03700
C2228       C  0.33252668  0.80290622  0.31788710    -0.08150
C2229       C  0.33856100  0.77987816  0.33039952     0.05380
C2230       C  0.35751824  0.76968676  0.30684377    -0.03170
Br2231     Br  0.36593202  0.73766565  0.31889583    -0.02870
H2232       H  0.38632115  0.77534966  0.25931230     0.09290
H2233       H  0.31722234  0.81065937  0.33314198     0.07310
Br2234     Br  0.33426260  0.84674060  0.26900422    -0.03300
C2235       C  0.35213720  0.84090651  0.03427999    -0.09930
C2236       C  0.34621014  0.85348233  0.07274345     0.06270
C2237       C  0.32548464  0.84812167  0.09699590    -0.03700
C2238       C  0.31147930  0.82946030  0.08360539    -0.08150
C2239       C  0.31856512  0.81578972  0.04720637     0.05380
C2240       C  0.33900386  0.82167254  0.02246544    -0.03170
Br2241     Br  0.35001644  0.80343823  0.97276687    -0.02870
H2242       H  0.36851194  0.84444265  0.01643043     0.09290
H2243       H  0.29502954  0.82582949  0.10102697     0.07310
Br2244     Br  0.31662543  0.86508381  0.14963449    -0.03300
C2245       C  0.48210603  0.50184158  0.25381310    -0.09930
C2246       C  0.49500728  0.52102842  0.27002807     0.06270
C2247       C  0.51674198  0.51543360  0.28998334    -0.03700
C2248       C  0.52533566  0.49188125  0.29136445    -0.08150
C2249       C  0.51275204  0.47291410  0.27309598     0.05380
C2250       C  0.49067426  0.47850039  0.25482790    -0.03170
Br2251     Br  0.47220652  0.45474588  0.22724546    -0.02870
H2252       H  0.46554990  0.50523263  0.23772631     0.09290
H2253       H  0.54265892  0.48869746  0.30421586     0.07310
Br2254     Br  0.53617015  0.53981992  0.31228724    -0.03300
C2255       C  0.53430544  0.58150011  0.10693750    -0.09930
C2256       C  0.52368187  0.60292850  0.09908978     0.06270
C2257       C  0.52015943  0.61142594  0.05405925    -0.03700
C2258       C  0.52706939  0.59785285  0.01794619    -0.08150
C2259       C  0.53848305  0.57658893  0.02582510     0.05380
C2260       C  0.54196819  0.56844227  0.07120940    -0.03170
Br2261     Br  0.55976804  0.54176745  0.08965824    -0.02870
H2262       H  0.53718334  0.57508026  0.14145684     0.09290
H2263       H  0.52491626  0.60468630  0.98352700     0.07310
Br2264     Br  0.50690650  0.64129029  0.03811500    -0.03300
C2265       C  0.40154637  0.50640691  0.14439714    -0.09930
C2266       C  0.42509776  0.51119885  0.15229155     0.06270
C2267       C  0.44188654  0.50219523  0.12242654    -0.03700
C2268       C  0.43531776  0.49755633  0.07865447    -0.08150
C2269       C  0.41175624  0.49781325  0.06652938     0.05380
C2270       C  0.39453792  0.50043703  0.10116052    -0.03170
Br2271     Br  0.36134115  0.49885195  0.09261840    -0.02870
H2272       H  0.38831364  0.51133051  0.16889597     0.09290
H2273       H  0.44896424  0.49451340  0.05391826     0.07310
Br2274     Br  0.47459453  0.50108507  0.13548322    -0.03300
C2275       C  0.31213306  0.65702033  0.27508404    -0.09930
C2276       C  0.31906556  0.66546696  0.31712777     0.06270
C2277       C  0.33881619  0.65584844  0.33844289    -0.03700
C2278       C  0.35131356  0.63826148  0.31773788    -0.08150
C2279       C  0.34562874  0.63117260  0.27420469     0.05380
C2280       C  0.32557091  0.64018433  0.25320590    -0.03170
Br2281     Br  0.31698047  0.63068909  0.19378386    -0.02870
H2282       H  0.29643162  0.66351484  0.25930065     0.09290
H2283       H  0.36734232  0.63227440  0.33322424     0.07310
Br2284     Br  0.35126069  0.66807332  0.39328814    -0.03300
C2285       C  0.43273397  0.73583834  0.18453454    -0.09930
C2286       C  0.45305939  0.72463445  0.19917215     0.06270
C2287       C  0.47313398  0.73840423  0.20702774    -0.03700
C2288       C  0.47234555  0.76284345  0.20001848    -0.08150
C2289       C  0.45203173  0.77383997  0.18418279     0.05380
C2290       C  0.43199759  0.75987425  0.17666365    -0.03170
Br2291     Br  0.40241799  0.77150928  0.15607450    -0.02870
H2292       H  0.41717694  0.72572019  0.17765098     0.09290
H2293       H  0.48781820  0.77322279  0.20612442     0.07310
Br2294     Br  0.50189210  0.72525365  0.22800018    -0.03300
C2295       C  0.37725604  0.68722047  0.02960083    -0.09930
C2296       C  0.37364383  0.68373565  0.07724813     0.06270
C2297       C  0.35304142  0.69293028  0.09598944    -0.03700
C2298       C  0.33682153  0.70443883  0.06781822    -0.08150
C2299       C  0.34010274  0.70766813  0.02001942     0.05380
C2300       C  0.36098828  0.69902529  0.00136821    -0.03170
Br2301     Br  0.36874328  0.70369922  0.93824580    -0.02870
H2302       H  0.39296304  0.68060369  0.01385652     0.09290
H2303       H  0.32113805  0.71072846  0.08409085     0.07310
Br2304     Br  0.34504697  0.68937005  0.15940752    -0.03300
loop_ 
_geom_bond_atom_site_label_1 
_geom_bond_atom_site_label_2 
_geom_bond_distance 
_geom_bond_site_symmetry_2 
_ccdc_geom_bond_type 
Zr1           O2   2.433       .  S
Zr1           O3   2.423       .  S
Zr1           O4   2.431       .  S
Zr1           O7   2.385       .  S
Zr1           O9   2.374       .  S
Zr1          O10   2.379       .  S
Zr1          O11   2.402       .  S
Zr1          O12   2.402       .  S
O2           H58   0.990       .  S
O2           H66   0.990       .  S
O3           C23   1.283       .  A
O4           C25   1.277       .  A
O5          Zr15   2.409       .  S
O5           C24   1.283       .  A
O6          Zr14   2.368       .  S
O6           C25   1.258       .  A
O7           C24   1.279       .  A
O8          Zr16   2.591       .  S
O8           C23   1.315       .  A
O9          Zr14   2.429       .  S
O9          Zr16   2.350       .  S
O10         Zr15   2.383       .  S
O10         Zr16   2.332       .  S
O10          H45   0.964       .  S
O11         Zr14   2.446       .  S
O11         Zr31   2.371       .  S
O11          H48   0.961       .  S
O12         Zr15   2.405       .  S
O12         Zr31   2.380       .  S
Zr13         O38   2.442       .  S
Zr13         O32   2.527       .  S
Zr13         O40   2.369       .  S
Zr13         O28   2.406       .  S
Zr13         O19   2.437       .  S
Zr13         O20   2.432       .  S
Zr13         O21   2.343       .  S
Zr13         O22   2.362       .  S
Zr14         O33   2.442       .  S
Zr14         O26   2.435       .  S
Zr14         O27   2.419       .  S
Zr14         O20   2.380       .  S
Zr14         O21   2.385       .  S
Zr15         O17   2.434       .  S
Zr15         O39   2.437       .  S
Zr15         O41   2.451       .  S
Zr15         O19   2.375       .  S
Zr15         O22   2.380       .  S
Zr16         O42   2.434       .  S
Zr16         O43   2.436       .  S
Zr16         O18   2.439       .  S
Zr16         O19   2.447       .  S
Zr16         O20   2.474       .  S
O17          H54   0.990       .  S
O18          H49   0.990       .  S
O18          H63   0.990       .  S
O20          H46   0.966       .  S
O21         Zr31   2.390       .  S
O22         Zr31   2.378       .  S
O22          H47   0.966       .  S
C23        C2246   1.541       .  S
C24        C2266   1.462       .  S
C25        C2256   1.447       .  S
O26          H62   0.990       .  S
O27          C29   1.278       .  A
O28          C29   1.280       .  A
C29        C2286   1.480       .  S
O30         Zr31   2.439       .  S
O30          H59   0.990       .  S
Zr31         O34   2.436       .  S
Zr31         O35   2.440       .  S
Zr31         O36   2.398       .  S
O32          C37   1.303       .  A
O33          H50   0.989       .  S
O33          H65   0.990       .  S
O34          H51   0.990       .  S
O35          H55   0.990       .  S
O35          H64   0.990       .  S
O36          C37   1.276       .  A
C37        C2296   1.518       .  S
O38          H57   0.990       .  S
O38          H61   0.990       .  S
O39          H53   0.990       .  S
O39          H60   0.990       .  S
O40          C44   1.272       .  A
O41          C44   1.286       .  A
O42          H52   0.990       .  S
O43          H56   0.990       .  S
C44        C2279   1.452       .  S
Zr67         O68   2.446       .  S
Zr67         O69   2.425       .  S
Zr67         O70   2.450       .  S
Zr67         O73   2.432       .  S
Zr67         O75   2.382       .  S
Zr67         O76   2.405       .  S
Zr67         O77   2.413       .  S
Zr67         O78   2.401       .  S
O68         H124   0.990       .  S
O68         H132   0.987       .  S
O69          C89   1.280       .  A
O70          C91   1.287       .  A
O71         Zr81   2.373       .  S
O71          C90   1.266       .  A
O72         Zr80   2.386       .  S
O72          C91   1.274       .  A
O73          C90   1.272       .  A
O74         Zr82   2.563       .  S
O74          C89   1.306       .  A
O75         Zr80   2.414       .  S
O75         Zr82   2.374       .  S
O76         Zr81   2.408       .  S
O76         Zr82   2.338       .  S
O76         H111   0.965       .  S
O77         Zr80   2.419       .  S
O77         Zr97   2.351       .  S
O77         H114   0.962       .  S
O78         Zr81   2.416       .  S
O78         Zr97   2.363       .  S
Zr79        O104   2.445       .  S
Zr79         O98   2.546       .  S
Zr79        O106   2.353       .  S
Zr79         O94   2.385       .  S
Zr79         O85   2.433       .  S
Zr79         O86   2.430       .  S
Zr79         O87   2.349       .  S
Zr79         O88   2.357       .  S
Zr80         O99   2.445       .  S
Zr80         O92   2.435       .  S
Zr80         O93   2.459       .  S
Zr80         O86   2.370       .  S
Zr80         O87   2.386       .  S
Zr81         O83   2.436       .  S
Zr81        O105   2.436       .  S
Zr81        O107   2.432       .  S
Zr81         O85   2.375       .  S
Zr81         O88   2.384       .  S
Zr82        O108   2.435       .  S
Zr82        O109   2.436       .  S
Zr82         O84   2.438       .  S
Zr82         O85   2.451       .  S
Zr82         O86   2.457       .  S
O83         H120   0.990       .  S
O84         H115   0.990       .  S
O84         H129   0.990       .  S
O86         H112   0.966       .  S
O87         Zr97   2.380       .  S
O88         Zr97   2.375       .  S
O88         H113   0.966       .  S
C89        C2216   1.541       .  S
C90        C2209   1.431       .  S
C91        C2196   1.453       .  S
O92         H128   0.990       .  S
O93          C95   1.286       .  A
O94          C95   1.271       .  A
C95        C2289   1.480       .  S
O96         Zr97   2.433       .  S
O96         H125   0.990       .  S
Zr97        O100   2.439       .  S
Zr97        O101   2.437       .  S
Zr97        O102   2.370       .  S
O98         C103   1.304       .  A
O99         H116   0.990       .  S
O99         H131   0.991       .  S
O100        H117   0.990       .  S
O101        H121   0.990       .  S
O101        H130   0.990       .  S
O102        C103   1.271       .  A
C103       C2226   1.507       .  S
O104        H123   0.990       .  S
O104        H127   0.990       .  S
O105        H119   0.990       .  S
O105        H126   0.990       .  S
O106        C110   1.270       .  A
O107        C110   1.281       .  A
O108        H118   0.990       .  S
O109        H122   0.990       .  S
C110       C2236   1.441       .  S
Zr133       O134   2.442       .  S
Zr133       O135   2.401       .  S
Zr133       O136   2.419       .  S
Zr133       O139   2.439       .  S
Zr133       O141   2.389       .  S
Zr133       O142   2.378       .  S
Zr133       O143   2.427       .  S
Zr133       O144   2.386       .  S
O134        H190   0.990       .  S
O134        H198   0.990       .  S
O135        C155   1.275       .  A
O136        C157   1.275       .  A
O137       Zr147   2.367       .  S
O137        C156   1.270       .  A
O138       Zr146   2.403       .  S
O138        C157   1.271       .  A
O139        C156   1.291       .  A
O140       Zr148   2.548       .  S
O140        C155   1.303       .  A
O141       Zr146   2.419       .  S
O141       Zr148   2.353       .  S
O142       Zr147   2.401       .  S
O142       Zr148   2.354       .  S
O142        H177   0.966       .  S
O143       Zr146   2.423       .  S
O143       Zr163   2.359       .  S
O143        H180   0.964       .  S
O144       Zr147   2.407       .  S
O144       Zr163   2.378       .  S
Zr145       O170   2.454       .  S
Zr145       O164   2.540       .  S
Zr145       O172   2.374       .  S
Zr145       O160   2.391       .  S
Zr145       O151   2.421       .  S
Zr145       O152   2.423       .  S
Zr145       O153   2.346       .  S
Zr145       O154   2.369       .  S
Zr146       O165   2.435       .  S
Zr146       O158   2.436   1_455  S
Zr146       O159   2.484       .  S
Zr146       O152   2.371       .  S
Zr146       O153   2.370       .  S
Zr147       O149   2.436       .  S
Zr147       O171   2.435       .  S
Zr147       O173   2.428       .  S
Zr147       O151   2.374       .  S
Zr147       O154   2.379       .  S
Zr148       O174   2.436       .  S
Zr148       O175   2.435       .  S
Zr148       O150   2.436       .  S
Zr148       O151   2.430       .  S
Zr148       O152   2.463       .  S
O149        H186   0.990       .  S
O150        H181   0.990   1_455  S
O150        H195   0.990   1_455  S
O152        H178   0.966       .  S
O153       Zr163   2.375       .  S
O154       Zr163   2.390       .  S
O154        H179   0.965       .  S
C155       C2139   1.533       .  S
C156       C2149   1.446       .  S
C157       C2159   1.464       .  S
O158        H194   0.990       .  S
O159        C161   1.292       .  A
O160        C161   1.277       .  A
C161       C2176   1.495       .  S
O162       Zr163   2.440       .  S
O162        H191   0.990       .  S
Zr163       O166   2.438       .  S
Zr163       O167   2.436       .  S
Zr163       O168   2.376       .  S
O164        C169   1.303       .  A
O165        H182   0.989       .  S
O165        H197   0.988       .  S
O166        H183   0.990       .  S
O167        H187   0.990       .  S
O167        H196   0.989       .  S
O168        C169   1.273       .  A
C169       C2189   1.496       .  S
O170        H189   0.989       .  S
O170        H193   0.991       .  S
O171        H185   0.990       .  S
O171        H192   0.990       .  S
O172        C176   1.268       .  A
O173        C176   1.279       .  A
O174        H184   0.990       .  S
O175        H188   0.990       .  S
C176       C2166   1.452       .  S
Zr199       O200   2.431       .  S
Zr199       O201   2.390       .  S
Zr199       O202   2.413   1_455  S
Zr199       O205   2.413       .  S
Zr199       O207   2.380       .  S
Zr199       O208   2.388       .  S
Zr199       O209   2.411       .  S
Zr199       O210   2.388       .  S
O200        H256   0.988       .  S
O200        H264   0.989       .  S
O201        C221   1.275       .  A
O202        C223   1.280       .  A
O203       Zr213   2.414       .  S
O203        C222   1.270       .  A
O204       Zr212   2.406   1_655  S
O204        C223   1.280       .  A
O205        C222   1.275       .  A
O206       Zr214   2.554       .  S
O206        C221   1.306       .  A
O207       Zr212   2.408       .  S
O207       Zr214   2.361       .  S
O208       Zr213   2.396       .  S
O208       Zr214   2.341       .  S
O208        H243   0.964       .  S
O209       Zr212   2.417       .  S
O209       Zr229   2.381       .  S
O209        H246   0.965       .  S
O210       Zr213   2.384       .  S
O210       Zr229   2.363       .  S
Zr211       O236   2.449       .  S
Zr211       O230   2.545       .  S
Zr211       O238   2.380       .  S
Zr211       O226   2.420       .  S
Zr211       O217   2.431       .  S
Zr211       O218   2.433       .  S
Zr211       O219   2.355       .  S
Zr211       O220   2.369       .  S
Zr212       O231   2.439       .  S
Zr212       O224   2.433   1_455  S
Zr212       O225   2.467       .  S
Zr212       O218   2.384       .  S
Zr212       O219   2.384       .  S
Zr213       O215   2.435       .  S
Zr213       O237   2.437       .  S
Zr213       O239   2.416       .  S
Zr213       O217   2.387       .  S
Zr213       O220   2.396       .  S
Zr214       O240   2.434       .  S
Zr214       O241   2.435       .  S
Zr214       O216   2.438       .  S
Zr214       O217   2.434       .  S
Zr214       O218   2.455       .  S
O215        H252   0.990       .  S
O216        H247   0.990       .  S
O216        H261   0.990   1_455  S
O218        H244   0.966       .  S
O219       Zr229   2.369       .  S
O220       Zr229   2.390       .  S
O220        H245   0.966       .  S
C221       C2086   1.510       .  S
C222       C2109   1.458       .  S
C223       C2096   1.464       .  S
O224        H260   0.990       .  S
O225        C227   1.289       .  A
O226        C227   1.280       .  A
C227       C2179   1.505       .  S
O228       Zr229   2.440       .  S
O228        H257   0.990       .  S
Zr229       O232   2.440       .  S
Zr229       O233   2.440       .  S
Zr229       O234   2.387       .  S
O230        C235   1.305       .  A
O231        H248   0.989   1_455  S
O231        H263   0.991       .  S
O232        H249   0.990       .  S
O233        H253   0.989       .  S
O233        H262   0.990       .  S
O234        C235   1.271       .  A
C235       C2116   1.527       .  S
O236        H255   0.990       .  S
O236        H259   0.990       .  S
O237        H251   0.990       .  S
O237        H258   0.990       .  S
O238        C242   1.277       .  A
O239        C242   1.277       .  A
O240        H250   0.990       .  S
O241        H254   0.990       .  S
C242       C2126   1.447       .  S
Zr265       O266   2.431       .  S
Zr265       O267   2.430       .  S
Zr265       O268   2.442       .  S
Zr265       O271   2.408       .  S
Zr265       O273   2.382       .  S
Zr265       O274   2.387       .  S
Zr265       O275   2.404       .  S
Zr265       O276   2.379       .  S
O266        H322   0.988       .  S
O266        H330   0.991       .  S
O267        C287   1.279       .  A
O268        C289   1.287       .  A
O269       Zr279   2.398       .  S
O269        C288   1.276       .  A
O270       Zr278   2.513       .  S
O270        C289   1.301       .  A
O271        C288   1.282       .  A
O272       Zr280   2.478       .  S
O272        C287   1.294       .  A
O273       Zr278   2.424       .  S
O273       Zr280   2.369       .  S
O274       Zr279   2.425       .  S
O274       Zr280   2.359       .  S
O274        H309   0.966       .  S
O275       Zr278   2.424       .  S
O275       Zr295   2.366       .  S
O275        H312   0.965       .  S
O276       Zr279   2.406       .  S
O276       Zr295   2.350       .  S
Zr277       O302   2.438       .  S
Zr277       O296   2.449       .  S
Zr277       O304   2.411       .  S
Zr277       O292   2.366       .  S
Zr277       O283   2.394       .  S
Zr277       O284   2.415   1_554  S
Zr277       O285   2.375   1_554  S
Zr277       O286   2.359   1_554  S
Zr278       O297   2.435       .  S
Zr278       O290   2.434       .  S
Zr278       O291   2.566       .  S
Zr278       O284   2.392       .  S
Zr278       O285   2.388       .  S
Zr279       O281   2.438   1_556  S
Zr279       O303   2.437   1_556  S
Zr279       O305   2.483   1_556  S
Zr279       O283   2.370   1_556  S
Zr279       O286   2.375       .  S
Zr280       O306   2.436       .  S
Zr280       O307   2.434       .  S
Zr280       O282   2.434       .  S
Zr280       O283   2.414   1_556  S
Zr280       O284   2.420       .  S
O281        H318   0.990       .  S
O282        H313   0.990       .  S
O282        H327   0.990       .  S
O284        H310   0.965       .  S
O285       Zr295   2.380       .  S
O286       Zr295   2.392       .  S
O286        H311   0.966   1_556  S
C287       C2119   1.519       .  S
C288       C2169   1.440       .  S
C289       C2076   1.516       .  S
O290        H326   0.990       .  S
O291        C293   1.311       .  A
O292        C293   1.273   1_554  A
C293       C2299   1.524   1_556  S
O294       Zr295   2.439       .  S
O294        H323   0.990       .  S
Zr295       O298   2.437       .  S
Zr295       O299   2.439       .  S
Zr295       O300   2.350       .  S
O296        C301   1.286       .  A
O297        H314   0.990       .  S
O297        H329   0.990       .  S
O298        H315   0.990       .  S
O299        H319   0.991       .  S
O299        H328   0.990       .  S
O300        C301   1.269   1_556  A
C301       C2239   1.444       .  S
O302        H321   0.990       .  S
O302        H325   0.990       .  S
O303        H317   0.990       .  S
O303        H324   0.990   1_554  S
O304        C308   1.280       .  A
O305        C308   1.290       .  A
O306        H316   0.990       .  S
O307        H320   0.990   1_556  S
C308       C2066   1.505       .  S
Zr331       O332   2.442       .  S
Zr331       O333   2.420       .  S
Zr331       O334   2.411       .  S
Zr331       O337   2.397       .  S
Zr331       O339   2.377       .  S
Zr331       O340   2.390       .  S
Zr331       O341   2.391       .  S
Zr331       O342   2.376       .  S
O332        H388   0.990       .  S
O332        H396   0.990       .  S
O333        C353   1.280       .  A
O334        C355   1.280       .  A
O335       Zr345   2.446       .  S
O335        C354   1.289       .  A
O336       Zr344   2.495       .  S
O336        C355   1.296       .  A
O337        C354   1.278       .  A
O338       Zr346   2.502       .  S
O338        C353   1.297       .  A
O339       Zr344   2.414       .  S
O339       Zr346   2.366       .  S
O340       Zr345   2.409       .  S
O340       Zr346   2.360       .  S
O340        H375   0.965       .  S
O341       Zr344   2.410       .  S
O341       Zr361   2.372       .  S
O341        H378   0.966       .  S
O342       Zr345   2.403       .  S
O342       Zr361   2.356       .  S
Zr343       O368   2.443       .  S
Zr343       O362   2.462       .  S
Zr343       O370   2.391       .  S
Zr343       O358   2.396       .  S
Zr343       O349   2.414       .  S
Zr343       O350   2.420       .  S
Zr343       O351   2.371       .  S
Zr343       O352   2.372       .  S
Zr344       O363   2.434       .  S
Zr344       O356   2.434       .  S
Zr344       O357   2.532       .  S
Zr344       O350   2.392       .  S
Zr344       O351   2.392       .  S
Zr345       O347   2.437       .  S
Zr345       O369   2.438       .  S
Zr345       O371   2.501       .  S
Zr345       O349   2.382       .  S
Zr345       O352   2.392       .  S
Zr346       O372   2.436       .  S
Zr346       O373   2.435       .  S
Zr346       O348   2.435       .  S
Zr346       O349   2.416       .  S
Zr346       O350   2.431       .  S
O347        H384   0.990       .  S
O348        H379   0.990       .  S
O348        H393   0.990       .  S
O350        H376   0.966       .  S
O351       Zr361   2.387       .  S
O352       Zr361   2.384       .  S
O352        H377   0.966       .  S
C353       C2186   1.501       .  S
C354       C2129   1.477       .  S
C355       C2079   1.488       .  S
O356        H392   0.990       .  S
O357        C359   1.305       .  A
O358        C359   1.276       .  A
C359       C2229   1.502       .  S
O360       Zr361   2.439       .  S
O360        H389   0.990       .  S
Zr361       O364   2.435       .  S
Zr361       O365   2.440       .  S
Zr361       O366   2.368       .  S
O362        C367   1.289       .  A
O363        H380   0.990       .  S
O363        H395   0.990       .  S
O364        H381   0.990       .  S
O365        H385   0.990       .  S
O365        H394   0.990       .  S
O366        C367   1.272       .  A
C367       C2276   1.464       .  S
O368        H387   0.989       .  S
O368        H391   0.990       .  S
O369        H383   0.990       .  S
O369        H390   0.990       .  S
O370        C374   1.266       .  A
O371        C374   1.290       .  A
O372        H382   0.990       .  S
O373        H386   0.990       .  S
C374       C2069   1.508       .  S
Zr397       O398   2.440       .  S
Zr397       O399   2.425       .  S
Zr397       O400   2.421       .  S
Zr397       O403   2.373       .  S
Zr397       O405   2.356       .  S
Zr397       O406   2.390       .  S
Zr397       O407   2.388       .  S
Zr397       O408   2.393       .  S
O398        H454   0.990       .  S
O398        H462   0.991       .  S
O399        C419   1.280       .  A
O400        C421   1.281       .  A
O401       Zr411   2.415       .  S
O401        C420   1.282       .  A
O402       Zr410   2.382       .  S
O402        C421   1.272       .  A
O403        C420   1.274       .  A
O404       Zr412   2.547       .  S
O404        C419   1.304       .  A
O405       Zr410   2.393       .  S
O405       Zr412   2.357       .  S
O406       Zr411   2.425       .  S
O406       Zr412   2.360       .  S
O406        H441   0.966       .  S
O407       Zr410   2.396       .  S
O407       Zr427   2.369       .  S
O407        H444   0.962       .  S
O408       Zr411   2.391       .  S
O408       Zr427   2.351       .  S
Zr409       O434   2.445       .  S
Zr409       O428   2.545       .  S
Zr409       O436   2.425       .  S
Zr409       O424   2.397       .  S
Zr409       O415   2.441       .  S
Zr409       O416   2.437       .  S
Zr409       O417   2.362       .  S
Zr409       O418   2.365       .  S
Zr410       O429   2.438       .  S
Zr410       O422   2.436       .  S
Zr410       O423   2.379       .  S
Zr410       O416   2.390       .  S
Zr410       O417   2.392       .  S
Zr411       O413   2.438   1_565  S
Zr411       O435   2.435   1_565  S
Zr411       O437   2.479       .  S
Zr411       O415   2.374       .  S
Zr411       O418   2.396       .  S
Zr412       O438   2.435       .  S
Zr412       O439   2.434       .  S
Zr412       O414   2.436       .  S
Zr412       O415   2.461       .  S
Zr412       O416   2.431       .  S
O413        H450   0.990       .  S
O414        H445   0.990       .  S
O414        H459   0.990       .  S
O416        H442   0.965       .  S
O417       Zr427   2.384       .  S
O418       Zr427   2.371       .  S
O418        H443   0.964       .  S
C419       C2016   1.529       .  S
C420       C2026   1.448   1_565  S
C421       C2199   1.439       .  S
O422        H458   0.990       .  S
O423        C425   1.272       .  A
O424        C425   1.279       .  A
C425       C2036   1.426       .  S
O426       Zr427   2.441       .  S
O426        H455   0.990       .  S
Zr427       O430   2.437       .  S
Zr427       O431   2.442       .  S
Zr427       O432   2.381       .  S
O428        C433   1.305       .  A
O429        H446   0.990       .  S
O429        H461   0.990       .  S
O430        H447   0.991       .  S
O431        H451   0.990       .  S
O431        H460   0.989       .  S
O432        C433   1.273       .  A
C433       C2056   1.520       .  S
O434        H453   0.990       .  S
O434        H457   0.990       .  S
O435        H449   0.990       .  S
O435        H456   0.990       .  S
O436        C440   1.282       .  A
O437        C440   1.291       .  A
O438        H448   0.990   1_565  S
O439        H452   0.990       .  S
C440       C2046   1.487       .  S
Zr463       O464   2.437       .  S
Zr463       O465   2.416       .  S
Zr463       O466   2.424       .  S
Zr463       O469   2.412       .  S
Zr463       O471   2.365       .  S
Zr463       O472   2.392       .  S
Zr463       O473   2.399       .  S
Zr463       O474   2.384       .  S
O464        H520   0.991       .  S
O464        H528   0.990       .  S
O465        C485   1.278       .  A
O466        C487   1.281       .  A
O467       Zr477   2.419       .  S
O467        C486   1.283       .  A
O468       Zr476   2.391       .  S
O468        C487   1.273       .  A
O469        C486   1.281       .  A
O470       Zr478   2.533       .  S
O470        C485   1.301       .  A
O471       Zr476   2.399       .  S
O471       Zr478   2.363       .  S
O472       Zr477   2.421       .  S
O472       Zr478   2.365       .  S
O472        H507   0.966       .  S
O473       Zr476   2.408       .  S
O473       Zr493   2.380       .  S
O473        H510   0.963       .  S
O474       Zr477   2.385       .  S
O474       Zr493   2.345       .  S
Zr475       O500   2.445       .  S
Zr475       O494   2.531       .  S
Zr475       O502   2.429       .  S
Zr475       O490   2.380       .  S
Zr475       O481   2.435       .  S
Zr475       O482   2.435       .  S
Zr475       O483   2.362       .  S
Zr475       O484   2.368       .  S
Zr476       O495   2.434       .  S
Zr476       O488   2.434       .  S
Zr476       O489   2.414       .  S
Zr476       O482   2.388       .  S
Zr476       O483   2.386       .  S
Zr477       O479   2.437       .  S
Zr477       O501   2.435   1_565  S
Zr477       O503   2.476       .  S
Zr477       O481   2.373       .  S
Zr477       O484   2.398       .  S
Zr478       O504   2.435       .  S
Zr478       O505   2.435       .  S
Zr478       O480   2.437       .  S
Zr478       O481   2.451       .  S
Zr478       O482   2.436       .  S
O479        H516   0.990   1_565  S
O480        H511   0.990       .  S
O480        H525   0.990       .  S
O482        H508   0.966       .  S
O483       Zr493   2.382       .  S
O484       Zr493   2.373       .  S
O484        H509   0.964       .  S
C485       C1976   1.519       .  S
C486       C1986   1.459       .  S
C487       C2156   1.443       .  S
O488        H524   0.990       .  S
O489        C491   1.278       .  A
O490        C491   1.276       .  A
C491       C2006   1.440       .  S
O492       Zr493   2.438       .  S
O492        H521   0.990       .  S
Zr493       O496   2.434       .  S
Zr493       O497   2.443       .  S
Zr493       O498   2.380       .  S
O494        C499   1.302       .  A
O495        H512   0.990       .  S
O495        H527   0.989       .  S
O496        H513   0.991       .  S
O497        H517   0.990       .  S
O497        H526   0.990       .  S
O498        C499   1.273       .  A
C499       C1999   1.500       .  S
O500        H519   0.990       .  S
O500        H523   0.990       .  S
O501        H515   0.990       .  S
O501        H522   0.990       .  S
O502        C506   1.283       .  A
O503        C506   1.291       .  A
O504        H514   0.990       .  S
O505        H518   0.990       .  S
C506       C2049   1.488       .  S
Zr529       O530   2.451   1_556  S
Zr529       O531   2.410       .  S
Zr529       O532   2.386       .  S
Zr529       O535   2.447   1_556  S
Zr529       O537   2.376       .  S
Zr529       O538   2.376       .  S
Zr529       O539   2.435       .  S
Zr529       O540   2.376       .  S
O530        H586   0.990   1_554  S
O530        H594   0.986       .  S
O531        C551   1.274       .  A
O532        C553   1.274       .  A
O533       Zr543   2.422   1_554  S
O533        C552   1.280       .  A
O534       Zr542   2.426       .  S
O534        C553   1.283       .  A
O535        C552   1.282       .  A
O536       Zr544   2.550       .  S
O536        C551   1.303       .  A
O537       Zr542   2.407       .  S
O537       Zr544   2.353       .  S
O538       Zr543   2.429       .  S
O538       Zr544   2.379       .  S
O538        H573   0.966       .  S
O539       Zr542   2.410       .  S
O539       Zr559   2.371   1_556  S
O539        H576   0.962   1_556  S
O540       Zr543   2.377       .  S
O540       Zr559   2.360   1_556  S
Zr541       O566   2.439       .  S
Zr541       O560   2.526       .  S
Zr541       O568   2.420       .  S
Zr541       O556   2.376       .  S
Zr541       O547   2.432       .  S
Zr541       O548   2.441       .  S
Zr541       O549   2.363       .  S
Zr541       O550   2.357       .  S
Zr542       O561   2.437       .  S
Zr542       O554   2.435       .  S
Zr542       O555   2.464       .  S
Zr542       O548   2.386       .  S
Zr542       O549   2.387       .  S
Zr543       O545   2.440       .  S
Zr543       O567   2.440       .  S
Zr543       O569   2.461       .  S
Zr543       O547   2.382       .  S
Zr543       O550   2.406       .  S
Zr544       O570   2.436       .  S
Zr544       O571   2.435       .  S
Zr544       O546   2.436       .  S
Zr544       O547   2.463       .  S
Zr544       O548   2.442       .  S
O545        H582   0.990       .  S
O546        H577   0.991       .  S
O546        H591   0.989       .  S
O548        H574   0.966       .  S
O549       Zr559   2.367   1_556  S
O550       Zr559   2.382   1_556  S
O550        H575   0.963       .  S
C551       C1926   1.534       .  S
C552       C1936   1.458       .  S
C553       C2259   1.457   1_556  S
O554        H590   0.990       .  S
O555        C557   1.290       .  A
O556        C557   1.274       .  A
C557       C1946   1.465       .  S
O558       Zr559   2.436       .  S
O558        H587   0.990       .  S
Zr559       O562   2.440       .  S
Zr559       O563   2.442       .  S
Zr559       O564   2.395       .  S
O560        C565   1.301   1_556  A
O561        H578   0.990       .  S
O561        H593   0.990   1_556  S
O562        H579   0.990       .  S
O563        H583   0.990       .  S
O563        H592   0.989       .  S
O564        C565   1.275       .  A
C565       C1966   1.504       .  S
O566        H585   0.990       .  S
O566        H589   0.990       .  S
O567        H581   0.990       .  S
O567        H588   0.990       .  S
O568        C572   1.281       .  A
O569        C572   1.287       .  A
O570        H580   0.990       .  S
O571        H584   0.990       .  S
C572       C1956   1.474       .  S
Zr595       O596   2.433       .  S
Zr595       O597   2.429       .  S
Zr595       O598   2.449       .  S
Zr595       O601   2.457       .  S
Zr595       O603   2.384       .  S
Zr595       O604   2.386       .  S
Zr595       O605   2.420       .  S
Zr595       O606   2.359       .  S
O596        H652   0.990       .  S
O596        H660   0.990       .  S
O597        C617   1.284       .  A
O598        C619   1.277       .  A
O599       Zr609   2.366       .  S
O599        C618   1.269       .  A
O600       Zr608   2.406       .  S
O600        C619   1.269       .  A
O601        C618   1.287       .  A
O602       Zr610   2.567       .  S
O602        C617   1.309   1_554  A
O603       Zr608   2.411       .  S
O603       Zr610   2.337   1_556  S
O604       Zr609   2.415       .  S
O604       Zr610   2.370   1_556  S
O604        H639   0.966       .  S
O605       Zr608   2.437       .  S
O605       Zr625   2.366       .  S
O605        H642   0.956       .  S
O606       Zr609   2.373       .  S
O606       Zr625   2.337       .  S
Zr607       O632   2.438   1_556  S
Zr607       O626   2.519       .  S
Zr607       O634   2.432       .  S
Zr607       O622   2.375       .  S
Zr607       O613   2.432   1_556  S
Zr607       O614   2.448   1_556  S
Zr607       O615   2.367       .  S
Zr607       O616   2.347       .  S
Zr608       O627   2.438       .  S
Zr608       O620   2.435   1_556  S
Zr608       O621   2.433   1_556  S
Zr608       O614   2.388   1_556  S
Zr608       O615   2.387       .  S
Zr609       O611   2.443       .  S
Zr609       O633   2.439       .  S
Zr609       O635   2.439       .  S
Zr609       O613   2.362   1_556  S
Zr609       O616   2.390       .  S
Zr610       O636   2.436       .  S
Zr610       O637   2.435       .  S
Zr610       O612   2.435       .  S
Zr610       O613   2.462       .  S
Zr610       O614   2.455       .  S
O611        H648   0.990       .  S
O612        H643   0.990       .  S
O612        H657   0.989       .  S
O614        H640   0.966       .  S
O615       Zr625   2.371       .  S
O616       Zr625   2.394       .  S
O616        H641   0.965       .  S
C617       C1886   1.537   1_556  S
C618       C1899   1.420       .  S
C619       C2099   1.465       .  S
O620        H656   0.990       .  S
O621        C623   1.283       .  A
O622        C623   1.274   1_556  A
C623       C1916   1.448       .  S
O624       Zr625   2.436       .  S
O624        H653   0.990       .  S
Zr625       O628   2.434       .  S
Zr625       O629   2.441       .  S
Zr625       O630   2.368       .  S
O626        C631   1.300       .  A
O627        H644   0.989       .  S
O627        H659   0.989       .  S
O628        H645   0.990       .  S
O629        H649   0.990       .  S
O629        H658   0.990       .  S
O630        C631   1.271       .  A
C631       C1906   1.494       .  S
O632        H651   0.990       .  S
O632        H655   0.990       .  S
O633        H647   0.990       .  S
O633        H654   0.990       .  S
O634        C638   1.282       .  A
O635        C638   1.282       .  A
O636        H646   0.990       .  S
O637        H650   0.990       .  S
C638       C1959   1.476       .  S
Zr661       O662   2.440       .  S
Zr661       O663   2.429       .  S
Zr661       O664   2.380       .  S
Zr661       O667   2.408       .  S
Zr661       O669   2.377       .  S
Zr661       O670   2.375       .  S
Zr661       O671   2.406       .  S
Zr661       O672   2.392       .  S
O662        H718   0.990       .  S
O662        H726   0.990       .  S
O663        C683   1.280       .  A
O664        C685   1.277       .  A
O665       Zr675   2.507       .  S
O665        C684   1.299       .  A
O666       Zr674   2.419       .  S
O666        C685   1.280       .  A
O667        C684   1.280       .  A
O668       Zr676   2.479       .  S
O668        C683   1.293       .  A
O669       Zr674   2.413       .  S
O669       Zr676   2.365       .  S
O670       Zr675   2.410       .  S
O670       Zr676   2.364       .  S
O670        H705   0.966       .  S
O671       Zr674   2.417       .  S
O671       Zr691   2.361       .  S
O671        H708   0.965       .  S
O672       Zr675   2.396       .  S
O672       Zr691   2.376       .  S
Zr673       O698   2.444       .  S
Zr673       O692   2.471       .  S
Zr673       O700   2.387       .  S
Zr673       O688   2.412       .  S
Zr673       O679   2.425       .  S
Zr673       O680   2.407       .  S
Zr673       O681   2.363       .  S
Zr673       O682   2.385       .  S
Zr674       O693   2.435       .  S
Zr674       O686   2.435       .  S
Zr674       O687   2.480       .  S
Zr674       O680   2.385       .  S
Zr674       O681   2.380       .  S
Zr675       O677   2.434       .  S
Zr675       O699   2.436       .  S
Zr675       O701   2.505       .  S
Zr675       O679   2.400       .  S
Zr675       O682   2.404       .  S
Zr676       O702   2.436       .  S
Zr676       O703   2.439       .  S
Zr676       O678   2.438       .  S
Zr676       O679   2.423       .  S
Zr676       O680   2.404       .  S
O677        H714   0.990       .  S
O678        H709   0.990       .  S
O678        H723   0.990       .  S
O680        H706   0.964       .  S
O681       Zr691   2.393       .  S
O682       Zr691   2.373       .  S
O682        H707   0.966       .  S
C683       C1996   1.503       .  S
C684       C1866   1.496       .  S
C685       C2039   1.468       .  S
O686        H722   0.990       .  S
O687        C689   1.292       .  A
O688        C689   1.280       .  A
C689       C1876   1.481       .  S
O690       Zr691   2.437       .  S
O690        H719   0.990       .  S
Zr691       O694   2.436       .  S
Zr691       O695   2.437       .  S
Zr691       O696   2.383       .  S
O692        C697   1.289       .  A
O693        H710   0.990       .  S
O693        H725   0.990       .  S
O694        H711   0.991       .  S
O695        H715   0.990       .  S
O695        H724   0.990       .  S
O696        C697   1.274       .  A
C697       C1949   1.487       .  S
O698        H717   0.990       .  S
O698        H721   0.991       .  S
O699        H713   0.990       .  S
O699        H720   0.990       .  S
O700        C704   1.273       .  A
O701        C704   1.299       .  A
O702        H712   0.990       .  S
O703        H716   0.990       .  S
C704       C1909   1.486       .  S
Zr727       O728   2.437       .  S
Zr727       O729   2.419       .  S
Zr727       O730   2.429       .  S
Zr727       O733   2.427       .  S
Zr727       O735   2.380       .  S
Zr727       O736   2.383       .  S
Zr727       O737   2.395       .  S
Zr727       O738   2.385       .  S
O728        H784   0.989       .  S
O728        H792   0.989       .  S
O729        C749   1.281       .  A
O730        C751   1.280       .  A
O731       Zr741   2.502       .  S
O731        C750   1.300       .  A
O732       Zr740   2.404       .  S
O732        C751   1.276       .  A
O733        C750   1.287       .  A
O734       Zr742   2.511       .  S
O734        C749   1.300       .  A
O735       Zr740   2.411       .  S
O735       Zr742   2.348       .  S
O736       Zr741   2.410       .  S
O736       Zr742   2.356       .  S
O736        H771   0.965       .  S
O737       Zr740   2.432       .  S
O737       Zr757   2.358       .  S
O737        H774   0.965       .  S
O738       Zr741   2.399       .  S
O738       Zr757   2.363       .  S
Zr739       O764   2.447       .  S
Zr739       O758   2.489       .  S
Zr739       O766   2.386       .  S
Zr739       O754   2.432       .  S
Zr739       O745   2.438       .  S
Zr739       O746   2.420       .  S
Zr739       O747   2.361       .  S
Zr739       O748   2.380       .  S
Zr740       O759   2.435       .  S
Zr740       O752   2.435       .  S
Zr740       O753   2.483       .  S
Zr740       O746   2.394       .  S
Zr740       O747   2.388       .  S
Zr741       O743   2.434       .  S
Zr741       O765   2.435       .  S
Zr741       O767   2.532       .  S
Zr741       O745   2.395       .  S
Zr741       O748   2.389       .  S
Zr742       O768   2.436       .  S
Zr742       O769   2.438       .  S
Zr742       O744   2.439       .  S
Zr742       O745   2.437       .  S
Zr742       O746   2.406       .  S
O743        H780   0.990       .  S
O744        H775   0.990       .  S
O744        H789   0.990       .  S
O746        H772   0.962       .  S
O747       Zr757   2.404       .  S
O748       Zr757   2.390       .  S
O748        H773   0.966       .  S
C749       C2059   1.515       .  S
C750       C1869   1.498       .  S
C751       C2009   1.468       .  S
O752        H788   0.990       .  S
O753        C755   1.292       .  A
O754        C755   1.282       .  A
C755       C1879   1.491   1_554  S
O756       Zr757   2.442       .  S
O756        H785   0.990       .  S
Zr757       O760   2.439       .  S
Zr757       O761   2.437       .  S
Zr757       O762   2.340       .  S
O758        C763   1.291       .  A
O759        H776   0.990       .  S
O759        H791   0.990       .  S
O760        H777   0.990       .  S
O761        H781   0.990       .  S
O761        H790   0.990       .  S
O762        C763   1.261       .  A
C763       C1919   1.476       .  S
O764        H783   0.990       .  S
O764        H787   0.991       .  S
O765        H779   0.990       .  S
O765        H786   0.990       .  S
O766        C770   1.272       .  A
O767        C770   1.303       .  A
O768        H778   0.990       .  S
O769        H782   0.990       .  S
C770       C1969   1.501       .  S
Zr793       O794   2.435       .  S
Zr793       O795   2.417       .  S
Zr793       O796   2.388       .  S
Zr793       O799   2.405       .  S
Zr793       O801   2.384       .  S
Zr793       O802   2.360       .  S
Zr793       O803   2.407       .  S
Zr793       O804   2.382       .  S
O794        H850   0.990       .  S
O794        H858   0.990       .  S
O795        C815   1.280       .  A
O796        C817   1.276       .  A
O797       Zr807   2.364       .  S
O797        C816   1.272       .  A
O798       Zr806   2.406       .  S
O798        C817   1.282       .  A
O799        C816   1.283       .  A
O800       Zr808   2.578       .  S
O800        C815   1.312       .  A
O801       Zr806   2.400       .  S
O801       Zr808   2.353       .  S
O802       Zr807   2.382       .  S
O802       Zr808   2.344       .  S
O802        H837   0.965       .  S
O803       Zr806   2.413       .  S
O803       Zr823   2.378       .  S
O803        H840   0.965       .  S
O804       Zr807   2.382       .  S
O804       Zr823   2.385       .  S
Zr805       O830   2.440       .  S
Zr805       O824   2.559       .  S
Zr805       O832   2.406       .  S
Zr805       O820   2.411       .  S
Zr805       O811   2.434       .  S
Zr805       O812   2.452       .  S
Zr805       O813   2.354       .  S
Zr805       O814   2.365       .  S
Zr806       O825   2.442       .  S
Zr806       O818   2.436       .  S
Zr806       O819   2.463       .  S
Zr806       O812   2.374       .  S
Zr806       O813   2.387       .  S
Zr807       O809   2.436       .  S
Zr807       O831   2.440       .  S
Zr807       O833   2.362       .  S
Zr807       O811   2.374       .  S
Zr807       O814   2.394       .  S
Zr808       O834   2.435       .  S
Zr808       O835   2.436       .  S
Zr808       O810   2.437       .  S
Zr808       O811   2.437       .  S
Zr808       O812   2.473       .  S
O809        H846   0.990       .  S
O810        H841   0.990       .  S
O810        H855   0.990       .  S
O812        H838   0.966       .  S
O813       Zr823   2.372       .  S
O814       Zr823   2.388       .  S
O814        H839   0.966       .  S
C815       C2249   1.537       .  S
C816       C1939   1.456       .  S
C817       C1826   1.460       .  S
O818        H854   0.990       .  S
O819        C821   1.287       .  A
O820        C821   1.279       .  A
C821       C1846   1.479       .  S
O822       Zr823   2.439       .  S
O822        H851   0.990       .  S
Zr823       O826   2.437       .  S
Zr823       O827   2.436       .  S
Zr823       O828   2.404       .  S
O824        C829   1.307       .  A
O825        H842   0.990       .  S
O825        H857   0.990       .  S
O826        H843   0.990       .  S
O827        H847   0.991       .  S
O827        H856   0.990       .  S
O828        C829   1.277       .  A
C829       C1859   1.534       .  S
O830        H849   0.989       .  S
O830        H853   0.990       .  S
O831        H845   0.990       .  S
O831        H852   0.990       .  S
O832        C836   1.280       .  A
O833        C836   1.269       .  A
O834        H844   0.990       .  S
O835        H848   0.990       .  S
C836       C1839   1.434       .  S
Zr859       O860   2.426       .  S
Zr859       O861   2.399       .  S
Zr859       O862   2.408       .  S
Zr859       O865   2.400       .  S
Zr859       O867   2.377       .  S
Zr859       O868   2.377       .  S
Zr859       O869   2.405       .  S
Zr859       O870   2.394       .  S
O860        H916   0.988       .  S
O860        H924   0.989       .  S
O861        C881   1.281       .  A
O862        C883   1.280       .  A
O863       Zr873   2.403       .  S
O863        C882   1.278       .  A
O864       Zr872   2.385       .  S
O864        C883   1.275       .  A
O865        C882   1.275       .  A
O866       Zr874   2.556       .  S
O866        C881   1.304       .  A
O867       Zr872   2.405       .  S
O867       Zr874   2.368       .  S
O868       Zr873   2.374       .  S
O868       Zr874   2.337       .  S
O868        H903   0.965       .  S
O869       Zr872   2.415       .  S
O869       Zr889   2.359       .  S
O869        H906   0.961       .  S
O870       Zr873   2.390       .  S
O870       Zr889   2.390       .  S
Zr871       O896   2.451       .  S
Zr871       O890   2.531       .  S
Zr871       O898   2.377       .  S
Zr871       O886   2.412       .  S
Zr871       O877   2.428       .  S
Zr871       O878   2.422       .  S
Zr871       O879   2.348       .  S
Zr871       O880   2.375       .  S
Zr872       O891   2.443       .  S
Zr872       O884   2.434       .  S
Zr872       O885   2.460       .  S
Zr872       O878   2.363       .  S
Zr872       O879   2.383       .  S
Zr873       O875   2.435       .  S
Zr873       O897   2.435       .  S
Zr873       O899   2.387       .  S
Zr873       O877   2.394       .  S
Zr873       O880   2.402       .  S
Zr874       O900   2.435       .  S
Zr874       O901   2.435       .  S
Zr874       O876   2.436       .  S
Zr874       O877   2.434       .  S
Zr874       O878   2.457       .  S
O875        H912   0.990       .  S
O876        H907   0.990       .  S
O876        H921   0.990       .  S
O878        H904   0.966       .  S
O879       Zr889   2.389       .  S
O880       Zr889   2.364       .  S
O880        H905   0.965       .  S
C881       C2219   1.533       .  S
C882       C2029   1.460       .  S
C883       C1796   1.434       .  S
O884        H920   0.990       .  S
O885        C887   1.288       .  A
O886        C887   1.277       .  A
C887       C1849   1.504       .  S
O888       Zr889   2.436       .  S
O888        H917   0.990       .  S
Zr889       O892   2.438       .  S
Zr889       O893   2.440       .  S
Zr889       O894   2.392       .  S
O890        C895   1.299       .  A
O891        H908   0.990       .  S
O891        H923   0.990       .  S
O892        H909   0.990       .  S
O893        H913   0.990       .  S
O893        H922   0.990       .  S
O894        C895   1.273       .  A
C895       C1809   1.503       .  S
O896        H915   0.989       .  S
O896        H919   0.991       .  S
O897        H911   0.990       .  S
O897        H918   0.990       .  S
O898        C902   1.268       .  A
O899        C902   1.269       .  A
O900        H910   0.990   1_554  S
O901        H914   0.990       .  S
C902       C1819   1.425       .  S
Zr925       O926   2.438       .  S
Zr925       O927   2.396       .  S
Zr925       O928   2.415   1_655  S
Zr925       O931   2.384       .  S
Zr925       O933   2.377       .  S
Zr925       O934   2.369       .  S
Zr925       O935   2.398       .  S
Zr925       O936   2.375       .  S
O926        H982   0.987       .  S
O926        H990   0.987       .  S
O927        C947   1.282       .  A
O928        C949   1.273       .  A
O929       Zr939   2.408       .  S
O929        C948   1.279       .  A
O930       Zr938   2.418   1_455  S
O930        C949   1.278       .  A
O931        C948   1.284       .  A
O932       Zr940   2.546       .  S
O932        C947   1.305       .  A
O933       Zr938   2.403       .  S
O933       Zr940   2.356       .  S
O934       Zr939   2.385       .  S
O934       Zr940   2.333       .  S
O934        H969   0.965       .  S
O935       Zr938   2.420       .  S
O935       Zr955   2.347       .  S
O935        H972   0.963       .  S
O936       Zr939   2.394       .  S
O936       Zr955   2.385       .  S
Zr937       O962   2.444       .  S
Zr937       O956   2.523       .  S
Zr937       O964   2.382       .  S
Zr937       O952   2.393       .  S
Zr937       O943   2.418       .  S
Zr937       O944   2.431       .  S
Zr937       O945   2.364       .  S
Zr937       O946   2.359       .  S
Zr938       O957   2.440   1_655  S
Zr938       O950   2.434   1_655  S
Zr938       O951   2.444       .  S
Zr938       O944   2.396       .  S
Zr938       O945   2.406       .  S
Zr939       O941   2.434       .  S
Zr939       O963   2.435       .  S
Zr939       O965   2.432       .  S
Zr939       O943   2.383       .  S
Zr939       O946   2.376       .  S
Zr940       O966   2.435       .  S
Zr940       O967   2.435       .  S
Zr940       O942   2.436   1_655  S
Zr940       O943   2.441       .  S
Zr940       O944   2.432       .  S
O941        H978   0.990       .  S
O942        H973   0.990       .  S
O942        H987   0.990       .  S
O944        H970   0.966       .  S
O945       Zr955   2.388       .  S
O946       Zr955   2.382       .  S
O946        H971   0.966       .  S
C947       C2136   1.518       .  S
C948       C1989   1.462       .  S
C949       C1759   1.472       .  S
O950        H986   0.990       .  S
O951        C953   1.280       .  A
O952        C953   1.276       .  A
C953       C1779   1.478       .  S
O954       Zr955   2.440       .  S
O954        H983   0.990       .  S
Zr955       O958   2.438       .  S
Zr955       O959   2.438       .  S
Zr955       O960   2.359       .  S
O956        C961   1.300       .  A
O957        H974   0.990       .  S
O957        H989   0.990       .  S
O958        H975   0.990       .  S
O959        H979   0.990       .  S
O959        H988   0.990       .  S
O960        C961   1.269       .  A
C961       C1786   1.485       .  S
O962        H981   0.990       .  S
O962        H985   0.989       .  S
O963        H977   0.990       .  S
O963        H984   0.990       .  S
O964        C968   1.274       .  A
O965        C968   1.283       .  A
O966        H976   0.990       .  S
O967        H980   0.990       .  S
C968       C1769   1.459       .  S
Zr991       O992   2.435       .  S
Zr991       O993   2.422       .  S
Zr991       O994   2.413   1_655  S
Zr991       O997   2.396       .  S
Zr991       O999   2.379       .  S
Zr991      O1000   2.371       .  S
Zr991      O1001   2.406       .  S
Zr991      O1002   2.383       .  S
O992       H1048   0.989       .  S
O992       H1056   0.989       .  S
O993       C1013   1.281       .  A
O994       C1015   1.277       .  A
O995      Zr1005   2.366       .  S
O995       C1014   1.267       .  A
O996      Zr1004   2.414   1_455  S
O996       C1015   1.281       .  A
O997       C1014   1.281       .  A
O998      Zr1006   2.527       .  S
O998       C1013   1.301       .  A
O999      Zr1004   2.412       .  S
O999      Zr1006   2.365       .  S
O1000     Zr1005   2.397       .  S
O1000     Zr1006   2.354       .  S
O1000      H1035   0.965       .  S
O1001     Zr1004   2.422       .  S
O1001     Zr1021   2.350       .  S
O1001      H1038   0.964       .  S
O1002     Zr1005   2.401       .  S
O1002     Zr1021   2.380       .  S
Zr1003     O1028   2.442       .  S
Zr1003     O1022   2.520       .  S
Zr1003     O1030   2.386       .  S
Zr1003     O1018   2.367       .  S
Zr1003     O1009   2.410       .  S
Zr1003     O1010   2.422       .  S
Zr1003     O1011   2.365       .  S
Zr1003     O1012   2.360       .  S
Zr1004     O1023   2.441   1_655  S
Zr1004     O1016   2.433   1_655  S
Zr1004     O1017   2.471       .  S
Zr1004     O1010   2.388       .  S
Zr1004     O1011   2.391       .  S
Zr1005     O1007   2.436       .  S
Zr1005     O1029   2.434       .  S
Zr1005     O1031   2.428       .  S
Zr1005     O1009   2.372       .  S
Zr1005     O1012   2.370       .  S
Zr1006     O1032   2.434       .  S
Zr1006     O1033   2.434       .  S
Zr1006     O1008   2.437   1_655  S
Zr1006     O1009   2.439       .  S
Zr1006     O1010   2.436       .  S
O1007      H1044   0.990       .  S
O1008      H1039   0.990       .  S
O1008      H1053   0.990       .  S
O1010      H1036   0.966       .  S
O1011     Zr1021   2.378       .  S
O1012     Zr1021   2.388       .  S
O1012      H1037   0.965       .  S
C1013      C2089   1.516       .  S
C1014      C1896   1.419       .  S
C1015      C1726   1.468       .  S
O1016      H1052   0.990       .  S
O1017      C1019   1.287       .  A
O1018      C1019   1.271       .  A
C1019      C1776   1.476       .  S
O1020     Zr1021   2.440       .  S
O1020      H1049   0.990       .  S
Zr1021     O1024   2.439       .  S
Zr1021     O1025   2.440       .  S
Zr1021     O1026   2.381       .  S
O1022      C1027   1.298       .  A
O1023      H1040   0.990       .  S
O1023      H1055   0.991       .  S
O1024      H1041   0.990       .  S
O1025      H1045   0.990       .  S
O1025      H1054   0.989       .  S
O1026      C1027   1.268       .  A
C1027      C1739   1.489       .  S
O1028      H1047   0.991       .  S
O1028      H1051   0.989       .  S
O1029      H1043   0.990       .  S
O1029      H1050   0.990       .  S
O1030      C1034   1.273       .  A
O1031      C1034   1.282       .  A
O1032      H1042   0.990       .  S
O1033      H1046   0.990       .  S
C1034      C1746   1.469       .  S
Zr1057     O1058   2.431       .  S
Zr1057     O1059   2.456       .  S
Zr1057     O1060   2.383       .  S
Zr1057     O1063   2.402       .  S
Zr1057     O1065   2.372       .  S
Zr1057     O1066   2.357       .  S
Zr1057     O1067   2.414       .  S
Zr1057     O1068   2.403       .  S
O1058      H1114   0.990       .  S
O1058      H1122   0.989       .  S
O1059      C1079   1.291       .  A
O1060      C1081   1.275       .  A
O1061     Zr1071   2.430       .  S
O1061      C1080   1.279       .  A
O1062     Zr1070   2.515       .  S
O1062      C1081   1.300       .  A
O1063      C1080   1.277       .  A
O1064     Zr1072   2.375       .  S
O1064      C1079   1.270       .  A
O1065     Zr1070   2.384       .  S
O1065     Zr1072   2.372       .  S
O1066     Zr1071   2.382       .  S
O1066     Zr1072   2.393       .  S
O1066      H1101   0.966       .  S
O1067     Zr1070   2.387       .  S
O1067     Zr1087   2.430       .  S
O1067      H1104   0.965       .  S
O1068     Zr1071   2.364       .  S
O1068     Zr1087   2.420       .  S
Zr1069     O1094   2.441       .  S
Zr1069     O1088   2.469       .  S
Zr1069     O1096   2.466   1_554  S
Zr1069     O1084   2.411       .  S
Zr1069     O1075   2.355   1_554  S
Zr1069     O1076   2.420   1_554  S
Zr1069     O1077   2.379   1_554  S
Zr1069     O1078   2.389   1_554  S
Zr1070     O1089   2.433       .  S
Zr1070     O1082   2.434   1_556  S
Zr1070     O1083   2.452   1_556  S
Zr1070     O1076   2.407       .  S
Zr1070     O1077   2.417       .  S
Zr1071     O1073   2.435       .  S
Zr1071     O1095   2.441       .  S
Zr1071     O1097   2.363       .  S
Zr1071     O1075   2.389       .  S
Zr1071     O1078   2.423       .  S
Zr1072     O1098   2.437       .  S
Zr1072     O1099   2.439       .  S
Zr1072     O1074   2.436       .  S
Zr1072     O1075   2.334       .  S
Zr1072     O1076   2.386       .  S
O1073      H1110   0.990       .  S
O1074      H1105   0.990       .  S
O1074      H1119   0.990       .  S
O1076      H1102   0.965   1_556  S
O1077     Zr1087   2.368       .  S
O1078     Zr1087   2.372       .  S
O1078      H1103   0.966       .  S
C1079      C1766   1.483       .  S
C1080      C1716   1.473       .  S
C1081      C1736   1.491       .  S
O1082      H1118   0.990   1_554  S
O1083      C1085   1.290       .  A
O1084      C1085   1.281       .  A
C1085      C1706   1.477       .  S
O1086     Zr1087   2.438       .  S
O1086      H1115   0.990       .  S
Zr1087     O1090   2.436       .  S
Zr1087     O1091   2.439       .  S
Zr1087     O1092   2.493       .  S
O1088      C1093   1.288       .  A
O1089      H1106   0.990   1_556  S
O1089      H1121   0.990       .  S
O1090      H1107   0.990       .  S
O1091      H1111   0.990       .  S
O1091      H1120   0.990       .  S
O1092      C1093   1.295   1_556  A
C1093      C1856   1.524       .  S
O1094      H1113   0.988       .  S
O1094      H1117   0.990       .  S
O1095      H1109   0.990       .  S
O1095      H1116   0.990       .  S
O1096      C1100   1.284       .  A
O1097      C1100   1.267       .  A
O1098      H1108   0.990       .  S
O1099      H1112   0.990   1_556  S
C1100      C1816   1.401       .  S
Zr1123     O1124   2.439       .  S
Zr1123     O1125   2.429       .  S
Zr1123     O1126   2.372       .  S
Zr1123     O1129   2.350       .  S
Zr1123     O1131   2.362       .  S
Zr1123     O1132   2.357       .  S
Zr1123     O1133   2.399       .  S
Zr1123     O1134   2.394       .  S
O1124      H1180   0.991       .  S
O1124      H1188   0.989       .  S
O1125      C1145   1.284       .  A
O1126      C1147   1.270       .  A
O1127     Zr1137   2.449       .  S
O1127      C1146   1.283       .  A
O1128     Zr1136   2.507       .  S
O1128      C1147   1.297       .  A
O1129      C1146   1.269       .  A
O1130     Zr1138   2.393       .  S
O1130      C1145   1.275       .  A
O1131     Zr1136   2.375       .  S
O1131     Zr1138   2.379       .  S
O1132     Zr1137   2.377       .  S
O1132     Zr1138   2.390       .  S
O1132      H1167   0.966       .  S
O1133     Zr1136   2.385       .  S
O1133     Zr1153   2.430       .  S
O1133      H1170   0.965       .  S
O1134     Zr1137   2.368       .  S
O1134     Zr1153   2.414       .  S
Zr1135     O1160   2.441       .  S
Zr1135     O1154   2.450       .  S
Zr1135     O1162   2.446       .  S
Zr1135     O1150   2.424       .  S
Zr1135     O1141   2.378       .  S
Zr1135     O1142   2.413       .  S
Zr1135     O1143   2.381       .  S
Zr1135     O1144   2.385       .  S
Zr1136     O1155   2.435       .  S
Zr1136     O1148   2.434       .  S
Zr1136     O1149   2.424       .  S
Zr1136     O1142   2.416       .  S
Zr1136     O1143   2.416       .  S
Zr1137     O1139   2.435       .  S
Zr1137     O1161   2.443       .  S
Zr1137     O1163   2.362       .  S
Zr1137     O1141   2.405       .  S
Zr1137     O1144   2.408       .  S
Zr1138     O1164   2.436       .  S
Zr1138     O1165   2.439       .  S
Zr1138     O1140   2.436       .  S
Zr1138     O1141   2.362       .  S
Zr1138     O1142   2.389       .  S
O1139      H1176   0.990       .  S
O1140      H1171   0.990       .  S
O1140      H1185   0.990       .  S
O1142      H1168   0.966       .  S
O1143     Zr1153   2.362       .  S
O1144     Zr1153   2.372       .  S
O1144      H1169   0.966       .  S
C1145      C1749   1.471       .  S
C1146      C1719   1.465       .  S
C1147      C1789   1.482       .  S
O1148      H1184   0.990       .  S
O1149      C1151   1.283       .  A
O1150      C1151   1.283       .  A
C1151      C1709   1.458       .  S
O1152     Zr1153   2.439       .  S
O1152      H1181   0.990       .  S
Zr1153     O1156   2.435       .  S
Zr1153     O1157   2.439       .  S
Zr1153     O1158   2.485       .  S
O1154      C1159   1.285       .  A
O1155      H1172   0.990       .  S
O1155      H1187   0.990       .  S
O1156      H1173   0.990       .  S
O1157      H1177   0.990       .  S
O1157      H1186   0.990       .  S
O1158      C1159   1.294       .  A
C1159      C1806   1.512       .  S
O1160      H1179   0.990       .  S
O1160      H1183   0.990       .  S
O1161      H1175   0.990       .  S
O1161      H1182   0.990       .  S
O1162      C1166   1.288       .  A
O1163      C1166   1.272       .  A
O1164      H1174   0.990       .  S
O1165      H1178   0.990       .  S
C1166      C1836   1.437       .  S
Zr1189     O1190   2.441       .  S
Zr1189     O1191   2.431       .  S
Zr1189     O1192   2.424       .  S
Zr1189     O1195   2.406       .  S
Zr1189     O1197   2.366       .  S
Zr1189     O1198   2.385       .  S
Zr1189     O1199   2.404       .  S
Zr1189     O1200   2.398       .  S
O1190      H1246   0.990       .  S
O1190      H1254   0.991       .  S
O1191      C1211   1.281       .  A
O1192      C1213   1.285       .  A
O1193     Zr1203   2.373   1_565  S
O1193      C1212   1.269       .  A
O1194     Zr1202   2.364       .  S
O1194      C1213   1.269       .  A
O1195      C1212   1.280   1_545  A
O1196     Zr1204   2.544       .  S
O1196      C1211   1.304       .  A
O1197     Zr1202   2.398       .  S
O1197     Zr1204   2.355       .  S
O1198     Zr1203   2.420       .  S
O1198     Zr1204   2.353       .  S
O1198      H1233   0.966   1_545  S
O1199     Zr1202   2.403       .  S
O1199     Zr1219   2.361       .  S
O1199      H1236   0.961       .  S
O1200     Zr1203   2.400       .  S
O1200     Zr1219   2.361       .  S
Zr1201     O1226   2.444       .  S
Zr1201     O1220   2.535       .  S
Zr1201     O1228   2.423       .  S
Zr1201     O1216   2.386       .  S
Zr1201     O1207   2.438       .  S
Zr1201     O1208   2.438       .  S
Zr1201     O1209   2.362       .  S
Zr1201     O1210   2.363       .  S
Zr1202     O1221   2.436       .  S
Zr1202     O1214   2.434       .  S
Zr1202     O1215   2.402       .  S
Zr1202     O1208   2.380       .  S
Zr1202     O1209   2.385       .  S
Zr1203     O1205   2.437   1_545  S
Zr1203     O1227   2.433   1_545  S
Zr1203     O1229   2.448       .  S
Zr1203     O1207   2.365       .  S
Zr1203     O1210   2.389       .  S
Zr1204     O1230   2.435   1_545  S
Zr1204     O1231   2.434       .  S
Zr1204     O1206   2.435       .  S
Zr1204     O1207   2.458       .  S
Zr1204     O1208   2.434       .  S
O1205      H1242   0.990       .  S
O1206      H1237   0.990       .  S
O1206      H1251   0.990       .  S
O1208      H1234   0.965       .  S
O1209     Zr1219   2.388       .  S
O1210     Zr1219   2.361       .  S
O1210      H1235   0.964       .  S
C1211      C2019   1.531       .  S
C1212      C2206   1.416       .  S
C1213      C1799   1.424       .  S
O1214      H1250   0.990       .  S
O1215      C1217   1.275       .  A
O1216      C1217   1.276       .  A
C1217      C1679   1.433       .  S
O1218     Zr1219   2.442       .  S
O1218      H1247   0.990       .  S
Zr1219     O1222   2.437       .  S
Zr1219     O1223   2.441       .  S
Zr1219     O1224   2.388       .  S
O1220      C1225   1.303       .  A
O1221      H1238   0.990       .  S
O1221      H1253   0.990       .  S
O1222      H1239   0.991       .  S
O1223      H1243   0.990       .  S
O1223      H1252   0.989       .  S
O1224      C1225   1.275       .  A
C1225      C1696   1.516       .  S
O1226      H1245   0.990       .  S
O1226      H1249   0.990       .  S
O1227      H1241   0.990       .  S
O1227      H1248   0.990       .  S
O1228      C1232   1.282       .  A
O1229      C1232   1.285       .  A
O1230      H1240   0.990       .  S
O1231      H1244   0.990       .  S
C1232      C1686   1.471       .  S
Zr1255     O1256   2.427       .  S
Zr1255     O1257   2.418       .  S
Zr1255     O1258   2.375       .  S
Zr1255     O1261   2.399       .  S
Zr1255     O1263   2.370       .  S
Zr1255     O1264   2.373       .  S
Zr1255     O1265   2.411       .  S
Zr1255     O1266   2.391       .  S
O1256      H1312   0.989       .  S
O1256      H1320   0.990       .  S
O1257      C1277   1.279       .  A
O1258      C1279   1.278       .  A
O1259     Zr1269   2.400   1_565  S
O1259      C1278   1.270       .  A
O1260     Zr1268   2.415       .  S
O1260      C1279   1.281       .  A
O1261      C1278   1.277   1_545  A
O1262     Zr1270   2.532       .  S
O1262      C1277   1.301       .  A
O1263     Zr1268   2.395       .  S
O1263     Zr1270   2.346       .  S
O1264     Zr1269   2.414       .  S
O1264     Zr1270   2.358       .  S
O1264      H1299   0.966   1_545  S
O1265     Zr1268   2.400       .  S
O1265     Zr1285   2.401       .  S
O1265      H1302   0.965       .  S
O1266     Zr1269   2.385       .  S
O1266     Zr1285   2.375       .  S
Zr1267     O1292   2.447       .  S
Zr1267     O1286   2.515       .  S
Zr1267     O1294   2.440       .  S
Zr1267     O1282   2.390       .  S
Zr1267     O1273   2.428       .  S
Zr1267     O1274   2.436       .  S
Zr1267     O1275   2.377       .  S
Zr1267     O1276   2.359       .  S
Zr1268     O1287   2.435       .  S
Zr1268     O1280   2.434       .  S
Zr1268     O1281   2.430       .  S
Zr1268     O1274   2.397       .  S
Zr1268     O1275   2.387       .  S
Zr1269     O1271   2.435       .  S
Zr1269     O1293   2.434   1_545  S
Zr1269     O1295   2.423       .  S
Zr1269     O1273   2.379       .  S
Zr1269     O1276   2.391       .  S
Zr1270     O1296   2.435   1_545  S
Zr1270     O1297   2.434       .  S
Zr1270     O1272   2.435       .  S
Zr1270     O1273   2.451       .  S
Zr1270     O1274   2.411       .  S
O1271      H1308   0.990   1_545  S
O1272      H1303   0.990       .  S
O1272      H1317   0.990       .  S
O1274      H1300   0.964       .  S
O1275     Zr1285   2.379       .  S
O1276     Zr1285   2.380       .  S
O1276      H1301   0.965       .  S
C1277      C1979   1.518   1_545  S
C1278      C2146   1.461       .  S
C1279      C1756   1.473       .  S
O1280      H1316   0.990       .  S
O1281      C1283   1.282       .  A
O1282      C1283   1.278       .  A
C1283      C1666   1.448       .  S
O1284     Zr1285   2.441       .  S
O1284      H1313   0.990       .  S
Zr1285     O1288   2.440       .  S
Zr1285     O1289   2.444       .  S
Zr1285     O1290   2.418       .  S
O1286      C1291   1.299       .  A
O1287      H1304   0.990       .  S
O1287      H1319   0.990       .  S
O1288      H1305   0.990       .  S
O1289      H1309   0.990       .  S
O1289      H1318   0.989       .  S
O1290      C1291   1.281       .  A
C1291      C1656   1.515       .  S
O1292      H1311   0.990       .  S
O1292      H1315   0.990       .  S
O1293      H1307   0.990       .  S
O1293      H1314   0.990       .  S
O1294      C1298   1.285       .  A
O1295      C1298   1.281       .  A
O1296      H1306   0.990       .  S
O1297      H1310   0.990       .  S
C1298      C1689   1.467       .  S
Zr1321     O1322   2.418   1_556  S
Zr1321     O1323   2.407       .  S
Zr1321     O1324   2.435       .  S
Zr1321     O1327   2.422       .  S
Zr1321     O1329   2.377       .  S
Zr1321     O1330   2.384       .  S
Zr1321     O1331   2.410       .  S
Zr1321     O1332   2.374       .  S
O1322      H1378   0.988       .  S
O1322      H1386   0.987       .  S
O1323      C1343   1.281       .  A
O1324      C1345   1.276       .  A
O1325     Zr1335   2.404   1_554  S
O1325      C1344   1.276       .  A
O1326     Zr1334   2.396       .  S
O1326      C1345   1.269       .  A
O1327      C1344   1.281   1_556  A
O1328     Zr1336   2.563       .  S
O1328      C1343   1.309       .  A
O1329     Zr1334   2.406       .  S
O1329     Zr1336   2.346       .  S
O1330     Zr1335   2.412       .  S
O1330     Zr1336   2.360       .  S
O1330      H1365   0.966       .  S
O1331     Zr1334   2.436       .  S
O1331     Zr1351   2.369   1_556  S
O1331      H1368   0.962   1_556  S
O1332     Zr1335   2.381       .  S
O1332     Zr1351   2.344   1_556  S
Zr1333     O1358   2.439       .  S
Zr1333     O1352   2.528       .  S
Zr1333     O1360   2.393       .  S
Zr1333     O1348   2.368       .  S
Zr1333     O1339   2.430       .  S
Zr1333     O1340   2.434       .  S
Zr1333     O1341   2.361       .  S
Zr1333     O1342   2.355       .  S
Zr1334     O1353   2.436       .  S
Zr1334     O1346   2.433       .  S
Zr1334     O1347   2.445       .  S
Zr1334     O1340   2.382       .  S
Zr1334     O1341   2.394       .  S
Zr1335     O1337   2.440       .  S
Zr1335     O1359   2.437       .  S
Zr1335     O1361   2.455       .  S
Zr1335     O1339   2.371       .  S
Zr1335     O1342   2.398       .  S
Zr1336     O1362   2.436       .  S
Zr1336     O1363   2.436       .  S
Zr1336     O1338   2.436       .  S
Zr1336     O1339   2.454       .  S
Zr1336     O1340   2.452       .  S
O1337      H1374   0.990       .  S
O1338      H1369   0.990       .  S
O1338      H1383   0.990       .  S
O1340      H1366   0.966       .  S
O1341     Zr1351   2.384   1_556  S
O1342     Zr1351   2.387   1_556  S
O1342      H1367   0.965       .  S
C1343      C1929   1.527       .  S
C1344      C2269   1.466       .  S
C1345      C1829   1.464       .  S
O1346      H1382   0.990       .  S
O1347      C1349   1.282       .  A
O1348      C1349   1.273       .  A
C1349      C1626   1.456       .  S
O1350     Zr1351   2.439       .  S
O1350      H1379   0.990       .  S
Zr1351     O1354   2.437       .  S
Zr1351     O1355   2.439       .  S
Zr1351     O1356   2.374       .  S
O1352      C1357   1.303   1_556  A
O1353      H1370   0.990       .  S
O1353      H1385   0.990       .  S
O1354      H1371   0.990       .  S
O1355      H1375   0.990       .  S
O1355      H1384   0.990       .  S
O1356      C1357   1.271       .  A
C1357      C1646   1.504       .  S
O1358      H1377   0.990       .  S
O1358      H1381   0.989       .  S
O1359      H1373   0.990       .  S
O1359      H1380   0.990       .  S
O1360      C1364   1.277       .  A
O1361      C1364   1.286       .  A
O1362      H1372   0.990       .  S
O1363      H1376   0.990       .  S
C1364      C1639   1.467       .  S
Zr1387     O1388   2.433       .  S
Zr1387     O1389   2.405       .  S
Zr1387     O1390   2.383       .  S
Zr1387     O1393   2.414       .  S
Zr1387     O1395   2.373       .  S
Zr1387     O1396   2.365       .  S
Zr1387     O1397   2.401       .  S
Zr1387     O1398   2.373       .  S
O1388      H1444   0.990       .  S
O1388      H1452   0.990       .  S
O1389      C1409   1.276   1_556  A
O1390      C1411   1.280       .  A
O1391     Zr1401   2.370       .  S
O1391      C1410   1.270       .  A
O1392     Zr1400   2.408       .  S
O1392      C1411   1.282       .  A
O1393      C1410   1.285       .  A
O1394     Zr1402   2.582       .  S
O1394      C1409   1.312       .  A
O1395     Zr1400   2.395       .  S
O1395     Zr1402   2.324   1_556  S
O1396     Zr1401   2.401       .  S
O1396     Zr1402   2.360   1_556  S
O1396      H1431   0.966       .  S
O1397     Zr1400   2.411       .  S
O1397     Zr1417   2.375       .  S
O1397      H1434   0.966       .  S
O1398     Zr1401   2.392       .  S
O1398     Zr1417   2.373       .  S
Zr1399     O1424   2.443   1_556  S
Zr1399     O1418   2.543       .  S
Zr1399     O1426   2.423       .  S
Zr1399     O1414   2.381       .  S
Zr1399     O1405   2.437       .  S
Zr1399     O1406   2.450   1_556  S
Zr1399     O1407   2.362       .  S
Zr1399     O1408   2.354       .  S
Zr1400     O1419   2.436       .  S
Zr1400     O1412   2.437   1_556  S
Zr1400     O1413   2.451       .  S
Zr1400     O1406   2.384   1_556  S
Zr1400     O1407   2.386       .  S
Zr1401     O1403   2.437       .  S
Zr1401     O1425   2.434       .  S
Zr1401     O1427   2.415       .  S
Zr1401     O1405   2.369       .  S
Zr1401     O1408   2.391       .  S
Zr1402     O1428   2.437       .  S
Zr1402     O1429   2.435       .  S
Zr1402     O1404   2.435       .  S
Zr1402     O1405   2.466   1_554  S
Zr1402     O1406   2.450       .  S
O1403      H1440   0.990       .  S
O1404      H1435   0.990       .  S
O1404      H1449   0.990       .  S
O1406      H1432   0.966       .  S
O1407     Zr1417   2.379       .  S
O1408     Zr1417   2.387       .  S
O1408      H1433   0.965       .  S
C1409      C1889   1.535       .  S
C1410      C2106   1.438       .  S
C1411      C1729   1.470       .  S
O1412      H1448   0.990       .  S
O1413      C1415   1.285   1_556  A
O1414      C1415   1.278   1_556  A
C1415      C1619   1.462       .  S
O1416     Zr1417   2.441       .  S
O1416      H1445   0.990       .  S
Zr1417     O1420   2.439       .  S
Zr1417     O1421   2.440       .  S
Zr1417     O1422   2.390       .  S
O1418      C1423   1.306       .  A
O1419      H1436   0.990       .  S
O1419      H1451   0.990       .  S
O1420      H1437   0.989       .  S
O1421      H1441   0.990       .  S
O1421      H1450   0.990       .  S
O1422      C1423   1.272       .  A
C1423      C1606   1.529       .  S
O1424      H1443   0.991       .  S
O1424      H1447   0.988       .  S
O1425      H1439   0.990       .  S
O1425      H1446   0.990       .  S
O1426      C1430   1.281       .  A
O1427      C1430   1.277       .  A
O1428      H1438   0.990       .  S
O1429      H1442   0.990       .  S
C1430      C1636   1.458       .  S
Zr1453     O1454   2.436       .  S
Zr1453     O1455   2.442       .  S
Zr1453     O1456   2.403       .  S
Zr1453     O1459   2.418       .  S
Zr1453     O1461   2.380       .  S
Zr1453     O1462   2.379       .  S
Zr1453     O1463   2.402       .  S
Zr1453     O1464   2.396       .  S
O1454      H1510   0.989       .  S
O1454      H1518   0.991       .  S
O1455      C1475   1.283       .  A
O1456      C1477   1.282       .  A
O1457     Zr1467   2.513       .  S
O1457      C1476   1.301       .  A
O1458     Zr1466   2.435       .  S
O1458      C1477   1.284       .  A
O1459      C1476   1.282       .  A
O1460     Zr1468   2.473       .  S
O1460      C1475   1.292       .  A
O1461     Zr1466   2.419       .  S
O1461     Zr1468   2.368       .  S
O1462     Zr1467   2.417       .  S
O1462     Zr1468   2.366       .  S
O1462      H1497   0.966       .  S
O1463     Zr1466   2.419       .  S
O1463     Zr1483   2.349       .  S
O1463      H1500   0.964       .  S
O1464     Zr1467   2.400       .  S
O1464     Zr1483   2.380       .  S
Zr1465     O1490   2.443       .  S
Zr1465     O1484   2.453       .  S
Zr1465     O1492   2.394       .  S
Zr1465     O1480   2.411       .  S
Zr1465     O1471   2.417       .  S
Zr1465     O1472   2.400       .  S
Zr1465     O1473   2.369       .  S
Zr1465     O1474   2.383       .  S
Zr1466     O1485   2.437       .  S
Zr1466     O1478   2.435       .  S
Zr1466     O1479   2.496       .  S
Zr1466     O1472   2.389       .  S
Zr1466     O1473   2.386       .  S
Zr1467     O1469   2.435       .  S
Zr1467     O1491   2.434       .  S
Zr1467     O1493   2.535       .  S
Zr1467     O1471   2.400       .  S
Zr1467     O1474   2.394       .  S
Zr1468     O1494   2.433       .  S
Zr1468     O1495   2.434       .  S
Zr1468     O1470   2.436       .  S
Zr1468     O1471   2.424       .  S
Zr1468     O1472   2.397       .  S
O1469      H1506   0.990       .  S
O1470      H1501   0.990       .  S
O1470      H1515   0.990       .  S
O1472      H1498   0.964       .  S
O1473     Zr1483   2.394       .  S
O1474     Zr1483   2.379       .  S
O1474      H1499   0.966       .  S
C1475      C1659   1.514       .  S
C1476      C1586   1.503       .  S
C1477      C1676   1.474       .  S
O1478      H1514   0.990       .  S
O1479      C1481   1.295       .  A
O1480      C1481   1.279       .  A
C1481      C1596   1.488       .  S
O1482     Zr1483   2.441       .  S
O1482      H1511   0.990       .  S
Zr1483     O1486   2.439       .  S
Zr1483     O1487   2.438       .  S
Zr1483     O1488   2.368       .  S
O1484      C1489   1.286       .  A
O1485      H1502   0.990       .  S
O1485      H1517   0.990       .  S
O1486      H1503   0.990       .  S
O1487      H1507   0.990       .  S
O1487      H1516   0.989       .  S
O1488      C1489   1.272       .  A
C1489      C1629   1.453       .  S
O1490      H1509   0.990       .  S
O1490      H1513   0.990       .  S
O1491      H1505   0.990       .  S
O1491      H1512   0.990       .  S
O1492      C1496   1.273       .  A
O1493      C1496   1.306       .  A
O1494      H1504   0.990       .  S
O1495      H1508   0.990       .  S
C1496      C1609   1.520       .  S
Zr1519     O1520   2.441       .  S
Zr1519     O1521   2.448       .  S
Zr1519     O1522   2.424       .  S
Zr1519     O1525   2.428       .  S
Zr1519     O1527   2.385       .  S
Zr1519     O1528   2.387       .  S
Zr1519     O1529   2.413       .  S
Zr1519     O1530   2.405       .  S
O1520      H1576   0.990       .  S
O1520      H1584   0.990       .  S
O1521      C1541   1.284       .  A
O1522      C1543   1.284       .  A
O1523     Zr1533   2.507       .  S
O1523      C1542   1.300       .  A
O1524     Zr1532   2.419       .  S
O1524      C1543   1.282       .  A
O1525      C1542   1.284       .  A
O1526     Zr1534   2.474       .  S
O1526      C1541   1.291       .  A
O1527     Zr1532   2.416       .  S
O1527     Zr1534   2.367       .  S
O1528     Zr1533   2.422       .  S
O1528     Zr1534   2.366       .  S
O1528      H1563   0.966       .  S
O1529     Zr1532   2.421       .  S
O1529     Zr1549   2.363       .  S
O1529      H1566   0.963       .  S
O1530     Zr1533   2.410       .  S
O1530     Zr1549   2.379       .  S
Zr1531     O1556   2.444       .  S
Zr1531     O1550   2.476       .  S
Zr1531     O1558   2.374       .  S
Zr1531     O1546   2.427       .  S
Zr1531     O1537   2.422       .  S
Zr1531     O1538   2.406       .  S
Zr1531     O1539   2.364       .  S
Zr1531     O1540   2.387       .  S
Zr1532     O1551   2.435       .  S
Zr1532     O1544   2.434       .  S
Zr1532     O1545   2.486       .  S
Zr1532     O1538   2.389       .  S
Zr1532     O1539   2.383       .  S
Zr1533     O1535   2.435       .  S
Zr1533     O1557   2.435       .  S
Zr1533     O1559   2.537       .  S
Zr1533     O1537   2.399       .  S
Zr1533     O1540   2.404       .  S
Zr1534     O1560   2.435       .  S
Zr1534     O1561   2.434       .  S
Zr1534     O1536   2.436       .  S
Zr1534     O1537   2.422       .  S
Zr1534     O1538   2.399       .  S
O1535      H1572   0.990       .  S
O1536      H1567   0.990       .  S
O1536      H1581   0.990       .  S
O1538      H1564   0.964       .  S
O1539     Zr1549   2.401       .  S
O1540     Zr1549   2.374       .  S
O1540      H1565   0.966       .  S
C1541      C1699   1.507       .  S
C1542      C1589   1.504       .  S
C1543      C1669   1.457       .  S
O1544      H1580   0.990       .  S
O1545      C1547   1.292       .  A
O1546      C1547   1.280       .  A
C1547      C1599   1.492   1_554  S
O1548     Zr1549   2.440       .  S
O1548      H1577   0.990       .  S
Zr1549     O1552   2.439       .  S
Zr1549     O1553   2.439       .  S
Zr1549     O1554   2.401       .  S
O1550      C1555   1.289       .  A
O1551      H1568   0.990       .  S
O1551      H1583   0.990       .  S
O1552      H1569   0.990       .  S
O1553      H1573   0.990       .  S
O1553      H1582   0.988       .  S
O1554      C1555   1.272       .  A
C1555      C1616   1.481       .  S
O1556      H1575   0.990       .  S
O1556      H1579   0.991       .  S
O1557      H1571   0.990       .  S
O1557      H1578   0.990       .  S
O1558      C1562   1.273       .  A
O1559      C1562   1.305       .  A
O1560      H1570   0.990       .  S
O1561      H1574   0.990       .  S
C1562      C1649   1.516       .  S
C1585      C1586   1.405       .  A
C1585      C1590   1.413       .  A
C1585      H1592   1.083       .  S
C1586      C1587   1.418       .  A
C1587      C1588   1.413       .  A
C1587     Br1594   1.918       .  S
C1588      C1589   1.405       .  A
C1588      H1593   1.083       .  S
C1589      C1590   1.418       .  A
C1590     Br1591   1.918       .  S
C1595      C1596   1.410       .  A
C1595      C1600   1.410       .  A
C1595      H1602   1.084       .  S
C1596      C1597   1.407       .  A
C1597      C1598   1.407       .  A
C1597     Br1604   1.917       .  S
C1598      C1599   1.410       .  A
C1598      H1603   1.084   1_556  S
C1599      C1600   1.407       .  A
C1600     Br1601   1.916       .  S
C1605      C1606   1.406       .  A
C1605      C1610   1.417       .  A
C1605      H1612   1.083       .  S
C1606      C1607   1.437       .  A
C1607      C1608   1.409       .  A
C1607     Br1614   1.923       .  S
C1608      C1609   1.397       .  A
C1608      H1613   1.083       .  S
C1609      C1610   1.432       .  A
C1610     Br1611   1.925       .  S
C1615      C1616   1.397       .  A
C1615      C1620   1.387       .  A
C1615      H1622   1.082       .  S
C1616      C1617   1.412       .  A
C1617      C1618   1.411       .  A
C1617     Br1624   1.912   1_554  S
C1618      C1619   1.406       .  A
C1618      H1623   1.084   1_554  S
C1619      C1620   1.405       .  A
C1620     Br1621   1.916       .  S
C1625      C1626   1.398       .  A
C1625      C1630   1.381       .  A
C1625      H1632   1.083       .  S
C1626      C1627   1.408       .  A
C1627      C1628   1.404       .  A
C1627     Br1634   1.916       .  S
C1628      C1629   1.404       .  A
C1628      H1633   1.083       .  S
C1629      C1630   1.404       .  A
C1630     Br1631   1.922       .  S
C1635      C1636   1.398       .  A
C1635      C1640   1.392       .  A
C1635      H1642   1.084       .  S
C1636      C1637   1.404       .  A
C1637      C1638   1.400       .  A
C1637     Br1644   1.917   1_556  S
C1638      C1639   1.405       .  A
C1638      H1643   1.084       .  S
C1639      C1640   1.409       .  A
C1640     Br1641   1.918       .  S
C1645      C1646   1.419       .  A
C1645      C1650   1.416       .  A
C1645      H1652   1.083       .  S
C1646      C1647   1.404       .  A
C1647      C1648   1.404       .  A
C1647     Br1654   1.917   1_554  S
C1648      C1649   1.420       .  A
C1648      H1653   1.080       .  S
C1649      C1650   1.411       .  A
C1650     Br1651   1.916       .  S
C1655      C1656   1.410       .  A
C1655      C1660   1.421       .  A
C1655      H1662   1.083       .  S
C1656      C1657   1.420       .  A
C1657      C1658   1.403       .  A
C1657     Br1664   1.919       .  S
C1658      C1659   1.402       .  A
C1658      H1663   1.084       .  S
C1659      C1660   1.425       .  A
C1660     Br1661   1.921       .  S
C1665      C1666   1.404       .  A
C1665      C1670   1.390       .  A
C1665      H1672   1.084       .  S
C1666      C1667   1.398       .  A
C1667      C1668   1.391       .  A
C1667     Br1674   1.918       .  S
C1668      C1669   1.407       .  A
C1668      H1673   1.084       .  S
C1669      C1670   1.403       .  A
C1670     Br1671   1.920       .  S
C1675      C1676   1.411       .  A
C1675      C1680   1.376       .  A
C1675      H1682   1.077       .  S
C1676      C1677   1.414       .  A
C1677      C1678   1.398       .  A
C1677     Br1684   1.919       .  S
C1678      C1679   1.400       .  A
C1678      H1683   1.084       .  S
C1679      C1680   1.391       .  A
C1680     Br1681   1.923       .  S
C1685      C1686   1.402       .  A
C1685      C1690   1.399       .  A
C1685      H1692   1.084       .  S
C1686      C1687   1.412       .  A
C1687      C1688   1.399       .  A
C1687     Br1694   1.918       .  S
C1688      C1689   1.399       .  A
C1688      H1693   1.084       .  S
C1689      C1690   1.408       .  A
C1690     Br1691   1.919       .  S
C1695      C1696   1.411       .  A
C1695      C1700   1.421       .  A
C1695      H1702   1.082       .  S
C1696      C1697   1.424       .  A
C1697      C1698   1.404       .  A
C1697     Br1704   1.923       .  S
C1698      C1699   1.400       .  A
C1698      H1703   1.084       .  S
C1699      C1700   1.420       .  A
C1700     Br1701   1.917       .  S
C1705      C1706   1.406       .  A
C1705      C1710   1.400       .  A
C1705      H1712   1.083       .  S
C1706      C1707   1.418       .  A
C1707      C1708   1.392       .  A
C1707     Br1714   1.923       .  S
C1708      C1709   1.395       .  A
C1708      H1713   1.084       .  S
C1709      C1710   1.404       .  A
C1710     Br1711   1.916       .  S
C1715      C1716   1.398       .  A
C1715      C1720   1.373       .  A
C1715      H1722   1.075       .  S
C1716      C1717   1.413       .  A
C1717      C1718   1.407       .  A
C1717     Br1724   1.916       .  S
C1718      C1719   1.406       .  A
C1718      H1723   1.083       .  S
C1719      C1720   1.409       .  A
C1720     Br1721   1.930       .  S
C1725      C1726   1.412       .  A
C1725      C1730   1.391       .  A
C1725      H1732   1.082       .  S
C1726      C1727   1.412       .  A
C1727      C1728   1.390       .  A
C1727     Br1734   1.925       .  S
C1728      C1729   1.405       .  A
C1728      H1733   1.085       .  S
C1729      C1730   1.403       .  A
C1730     Br1731   1.920       .  S
C1735      C1736   1.405       .  A
C1735      C1740   1.413       .  A
C1735      H1742   1.083       .  S
C1736      C1737   1.414       .  A
C1737      C1738   1.402       .  A
C1737     Br1744   1.916       .  S
C1738      C1739   1.400       .  A
C1738      H1743   1.084       .  S
C1739      C1740   1.417       .  A
C1740     Br1741   1.917       .  S
C1745      C1746   1.401       .  A
C1745      C1750   1.396       .  A
C1745      H1752   1.084       .  S
C1746      C1747   1.414       .  A
C1747      C1748   1.387       .  A
C1747     Br1754   1.922       .  S
C1748      C1749   1.399       .  A
C1748      H1753   1.084       .  S
C1749      C1750   1.415       .  A
C1750     Br1751   1.920       .  S
C1755      C1756   1.407       .  A
C1755      C1760   1.396       .  A
C1755      H1762   1.084       .  S
C1756      C1757   1.400       .  A
C1757      C1758   1.392       .  A
C1757     Br1764   1.918       .  S
C1758      C1759   1.413       .  A
C1758      H1763   1.081       .  S
C1759      C1760   1.414       .  A
C1760     Br1761   1.927       .  S
C1765      C1766   1.403       .  A
C1765      C1770   1.392       .  A
C1765      H1772   1.083       .  S
C1766      C1767   1.428       .  A
C1767      C1768   1.393       .  A
C1767     Br1774   1.926       .  S
C1768      C1769   1.391       .  A
C1768      H1773   1.084       .  S
C1769      C1770   1.408       .  A
C1770     Br1771   1.916       .  S
C1775      C1776   1.411       .  A
C1775      C1780   1.418       .  A
C1775      H1782   1.083   1_655  S
C1776      C1777   1.410       .  A
C1777      C1778   1.365       .  A
C1777     Br1784   1.917       .  S
C1778      C1779   1.395       .  A
C1778      H1783   1.082       .  S
C1779      C1780   1.414       .  A
C1780     Br1781   1.914   1_655  S
C1785      C1786   1.406       .  A
C1785      C1790   1.396       .  A
C1785      H1792   1.084       .  S
C1786      C1787   1.410       .  A
C1787      C1788   1.416       .  A
C1787     Br1794   1.915       .  S
C1788      C1789   1.412       .  A
C1788      H1793   1.083       .  S
C1789      C1790   1.407       .  A
C1790     Br1791   1.921       .  S
C1795      C1796   1.394       .  A
C1795      C1800   1.380       .  A
C1795      H1802   1.084       .  S
C1796      C1797   1.411       .  A
C1797      C1798   1.379       .  A
C1797     Br1804   1.909       .  S
C1798      C1799   1.386       .  A
C1798      H1803   1.081       .  S
C1799      C1800   1.407       .  A
C1800     Br1801   1.916       .  S
C1805      C1806   1.415       .  A
C1805      C1810   1.418       .  A
C1805      H1812   1.083       .  S
C1806      C1807   1.413       .  A
C1807      C1808   1.409       .  A
C1807     Br1814   1.918       .  S
C1808      C1809   1.408       .  A
C1808      H1813   1.084       .  S
C1809      C1810   1.413       .  A
C1810     Br1811   1.917       .  S
C1815      C1816   1.378   1_554  A
C1815      C1820   1.358       .  A
C1815      H1822   1.087       .  S
C1816      C1817   1.401       .  A
C1817      C1818   1.390   1_556  A
C1817     Br1824   1.916       .  S
C1818      C1819   1.401       .  A
C1818      H1823   1.084       .  S
C1819      C1820   1.405       .  A
C1820     Br1821   1.902       .  S
C1825      C1826   1.399       .  A
C1825      C1830   1.382       .  A
C1825      H1832   1.084       .  S
C1826      C1827   1.410       .  A
C1827      C1828   1.390       .  A
C1827     Br1834   1.919       .  S
C1828      C1829   1.400   1_554  A
C1828      H1833   1.084   1_554  S
C1829      C1830   1.416   1_556  A
C1830     Br1831   1.921       .  S
C1835      C1836   1.398       .  A
C1835      C1840   1.381       .  A
C1835      H1842   1.084       .  S
C1836      C1837   1.403       .  A
C1837      C1838   1.384       .  A
C1837     Br1844   1.918       .  S
C1838      C1839   1.398       .  A
C1838      H1843   1.084       .  S
C1839      C1840   1.401       .  A
C1840     Br1841   1.919       .  S
C1845      C1846   1.397       .  A
C1845      C1850   1.395       .  A
C1845      H1852   1.085       .  S
C1846      C1847   1.406       .  A
C1847      C1848   1.410       .  A
C1847     Br1854   1.915       .  S
C1848      C1849   1.415       .  A
C1848      H1853   1.083       .  S
C1849      C1850   1.425       .  A
C1850     Br1851   1.924       .  S
C1855      C1856   1.401       .  A
C1855      C1860   1.410       .  A
C1855      H1862   1.084       .  S
C1856      C1857   1.424       .  A
C1857      C1858   1.429       .  A
C1857     Br1864   1.918       .  S
C1858      C1859   1.414       .  A
C1858      H1863   1.083       .  S
C1859      C1860   1.428       .  A
C1860     Br1861   1.921       .  S
C1865      C1866   1.404       .  A
C1865      C1870   1.411       .  A
C1865      H1872   1.083       .  S
C1866      C1867   1.417       .  A
C1867      C1868   1.410       .  A
C1867     Br1874   1.918       .  S
C1868      C1869   1.403       .  A
C1868      H1873   1.083       .  S
C1869      C1870   1.417       .  A
C1870     Br1871   1.918       .  S
C1875      C1876   1.398       .  A
C1875      C1880   1.400       .  A
C1875      H1882   1.084       .  S
C1876      C1877   1.414       .  A
C1877      C1878   1.411       .  A
C1877     Br1884   1.917       .  S
C1878      C1879   1.404       .  A
C1878      H1883   1.083       .  S
C1879      C1880   1.417       .  A
C1880     Br1881   1.922   1_556  S
C1885      C1886   1.415   1_455  A
C1885      C1890   1.428       .  A
C1885      H1892   1.083       .  S
C1886      C1887   1.420       .  A
C1887      C1888   1.427   1_655  A
C1887     Br1894   1.917   1_554  S
C1888      C1889   1.415       .  A
C1888      H1893   1.083       .  S
C1889      C1890   1.420       .  A
C1890     Br1891   1.915       .  S
C1895      C1896   1.392       .  A
C1895      C1900   1.385       .  A
C1895      H1902   1.084       .  S
C1896      C1897   1.404       .  A
C1897      C1898   1.375       .  A
C1897     Br1904   1.917       .  S
C1898      C1899   1.390       .  A
C1898      H1903   1.085       .  S
C1899      C1900   1.404       .  A
C1900     Br1901   1.908       .  S
C1905      C1906   1.405       .  A
C1905      C1910   1.413       .  A
C1905      H1912   1.083       .  S
C1906      C1907   1.419       .  A
C1907      C1908   1.399       .  A
C1907     Br1914   1.918       .  S
C1908      C1909   1.397       .  A
C1908      H1913   1.084       .  S
C1909      C1910   1.419       .  A
C1910     Br1911   1.919       .  S
C1915      C1916   1.391       .  A
C1915      C1920   1.386       .  A
C1915      H1922   1.086       .  S
C1916      C1917   1.406       .  A
C1917      C1918   1.400       .  A
C1917     Br1924   1.914   1_554  S
C1918      C1919   1.405       .  A
C1918      H1923   1.083       .  S
C1919      C1920   1.423       .  A
C1920     Br1921   1.928       .  S
C1925      C1926   1.419       .  A
C1925      C1930   1.434       .  A
C1925      H1932   1.083       .  S
C1926      C1927   1.422       .  A
C1927      C1928   1.412       .  A
C1927     Br1934   1.921       .  S
C1928      C1929   1.408       .  A
C1928      H1933   1.084       .  S
C1929      C1930   1.420       .  A
C1930     Br1931   1.914       .  S
C1935      C1936   1.406       .  A
C1935      C1940   1.387       .  A
C1935      H1942   1.074       .  S
C1936      C1937   1.407       .  A
C1937      C1938   1.394       .  A
C1937     Br1944   1.919       .  S
C1938      C1939   1.406       .  A
C1938      H1943   1.084       .  S
C1939      C1940   1.396       .  A
C1940     Br1941   1.923       .  S
C1945      C1946   1.408       .  A
C1945      C1950   1.402       .  A
C1945      H1952   1.084       .  S
C1946      C1947   1.401       .  A
C1947      C1948   1.393       .  A
C1947     Br1954   1.921       .  S
C1948      C1949   1.413       .  A
C1948      H1953   1.083       .  S
C1949      C1950   1.410       .  A
C1950     Br1951   1.920       .  S
C1955      C1956   1.401       .  A
C1955      C1960   1.401       .  A
C1955      H1962   1.084       .  S
C1956      C1957   1.411       .  A
C1957      C1958   1.402       .  A
C1957     Br1964   1.917   1_556  S
C1958      C1959   1.401       .  A
C1958      H1963   1.083   1_556  S
C1959      C1960   1.411       .  A
C1960     Br1961   1.919       .  S
C1965      C1966   1.407       .  A
C1965      C1970   1.417       .  A
C1965      H1972   1.083       .  S
C1966      C1967   1.417       .  A
C1967      C1968   1.411       .  A
C1967     Br1974   1.919       .  S
C1968      C1969   1.405       .  A
C1968      H1973   1.083       .  S
C1969      C1970   1.419       .  A
C1970     Br1971   1.919       .  S
C1975      C1976   1.411   1_545  A
C1975      C1980   1.425   1_655  A
C1975      H1982   1.083       .  S
C1976      C1977   1.416   1_655  A
C1977      C1978   1.414       .  A
C1977     Br1984   1.912   1_455  S
C1978      C1979   1.407       .  A
C1978      H1983   1.083       .  S
C1979      C1980   1.420   1_565  A
C1980     Br1981   1.916       .  S
C1985      C1986   1.408   1_545  A
C1985      C1990   1.390       .  A
C1985      H1992   1.083       .  S
C1986      C1987   1.411       .  A
C1987      C1988   1.387   1_565  A
C1987     Br1994   1.920       .  S
C1988      C1989   1.401       .  A
C1988      H1993   1.085       .  S
C1989      C1990   1.403       .  A
C1990     Br1991   1.918       .  S
C1995      C1996   1.400       .  A
C1995      C2000   1.402       .  A
C1995      H2002   1.084       .  S
C1996      C1997   1.423       .  A
C1997      C1998   1.418       .  A
C1997     Br2004   1.920       .  S
C1998      C1999   1.407       .  A
C1998      H2003   1.083       .  S
C1999      C2000   1.418       .  A
C2000     Br2001   1.919       .  S
C2005      C2006   1.399       .  A
C2005      C2010   1.398       .  A
C2005      H2012   1.084       .  S
C2006      C2007   1.396       .  A
C2007      C2008   1.375       .  A
C2007     Br2014   1.917       .  S
C2008      C2009   1.403       .  A
C2008      H2013   1.080       .  S
C2009      C2010   1.418       .  A
C2010     Br2011   1.922       .  S
C2015      C2016   1.410   1_545  A
C2015      C2020   1.422       .  A
C2015      H2022   1.083       .  S
C2016      C2017   1.421       .  A
C2017      C2018   1.427       .  A
C2017     Br2024   1.917       .  S
C2018      C2019   1.413   1_565  A
C2018      H2023   1.083       .  S
C2019      C2020   1.420       .  A
C2020     Br2021   1.915       .  S
C2025      C2026   1.404       .  A
C2025      C2030   1.389       .  A
C2025      H2032   1.084   1_545  S
C2026      C2027   1.409       .  A
C2027      C2028   1.380       .  A
C2027     Br2034   1.931       .  S
C2028      C2029   1.402       .  A
C2028      H2033   1.084       .  S
C2029      C2030   1.405       .  A
C2030     Br2031   1.918       .  S
C2035      C2036   1.397       .  A
C2035      C2040   1.396       .  A
C2035      H2042   1.084       .  S
C2036      C2037   1.389       .  A
C2037      C2038   1.370       .  A
C2037     Br2044   1.923       .  S
C2038      C2039   1.411       .  A
C2038      H2043   1.080       .  S
C2039      C2040   1.416       .  A
C2040     Br2041   1.920       .  S
C2045      C2046   1.406       .  A
C2045      C2050   1.406       .  A
C2045      H2052   1.083       .  S
C2046      C2047   1.411       .  A
C2047      C2048   1.406       .  A
C2047     Br2054   1.919       .  S
C2048      C2049   1.406       .  A
C2048      H2053   1.083       .  S
C2049      C2050   1.411       .  A
C2050     Br2051   1.919       .  S
C2055      C2056   1.408       .  A
C2055      C2060   1.421       .  A
C2055      H2062   1.081       .  S
C2056      C2057   1.425       .  A
C2057      C2058   1.406       .  A
C2057     Br2064   1.922       .  S
C2058      C2059   1.402       .  A
C2058      H2063   1.084       .  S
C2059      C2060   1.425       .  A
C2060     Br2061   1.919       .  S
C2065      C2066   1.400       .  A
C2065      C2070   1.384       .  A
C2065      H2072   1.079       .  S
C2066      C2067   1.417       .  A
C2067      C2068   1.423       .  A
C2067     Br2074   1.915       .  S
C2068      C2069   1.416       .  A
C2068      H2073   1.083       .  S
C2069      C2070   1.423       .  A
C2070     Br2071   1.932       .  S
C2075      C2076   1.413       .  A
C2075      C2080   1.418       .  A
C2075      H2082   1.083       .  S
C2076      C2077   1.425       .  A
C2077      C2078   1.398       .  A
C2077     Br2084   1.910       .  S
C2078      C2079   1.394       .  A
C2078      H2083   1.085       .  S
C2079      C2080   1.413       .  A
C2080     Br2081   1.915       .  S
C2085      C2086   1.414       .  A
C2085      C2090   1.423       .  A
C2085      H2092   1.083       .  S
C2086      C2087   1.414   1_455  A
C2087      C2088   1.412       .  A
C2087     Br2094   1.919       .  S
C2088      C2089   1.410       .  A
C2088      H2093   1.084       .  S
C2089      C2090   1.415   1_655  A
C2090     Br2091   1.916       .  S
C2095      C2096   1.401       .  A
C2095      C2100   1.390       .  A
C2095      H2102   1.074       .  S
C2096      C2097   1.404       .  A
C2097      C2098   1.389       .  A
C2097     Br2104   1.921       .  S
C2098      C2099   1.409       .  A
C2098      H2103   1.079       .  S
C2099      C2100   1.397       .  A
C2100     Br2101   1.928   1_655  S
C2105      C2106   1.404       .  A
C2105      C2110   1.392       .  A
C2105      H2112   1.084       .  S
C2106      C2107   1.391       .  A
C2107      C2108   1.380       .  A
C2107     Br2114   1.921       .  S
C2108      C2109   1.406       .  A
C2108      H2113   1.074       .  S
C2109      C2110   1.404       .  A
C2110     Br2111   1.919       .  S
C2115      C2116   1.412       .  A
C2115      C2120   1.425       .  A
C2115      H2122   1.083       .  S
C2116      C2117   1.434       .  A
C2117      C2118   1.397       .  A
C2117     Br2124   1.926       .  S
C2118      C2119   1.397       .  A
C2118      H2123   1.083       .  S
C2119      C2120   1.429       .  A
C2120     Br2121   1.921       .  S
C2125      C2126   1.391       .  A
C2125      C2130   1.380       .  A
C2125      H2132   1.086       .  S
C2126      C2127   1.404       .  A
C2127      C2128   1.401       .  A
C2127     Br2134   1.917       .  S
C2128      C2129   1.410       .  A
C2128      H2133   1.083       .  S
C2129      C2130   1.419       .  A
C2130     Br2131   1.925       .  S
C2135      C2136   1.400   1_455  A
C2135      C2140   1.400   1_545  A
C2135      H2142   1.084       .  S
C2136      C2137   1.419       .  A
C2137      C2138   1.432   1_645  A
C2137     Br2144   1.913       .  S
C2138      C2139   1.419       .  A
C2138      H2143   1.083   1_455  S
C2139      C2140   1.430       .  A
C2140     Br2141   1.925       .  S
C2145      C2146   1.412       .  A
C2145      C2150   1.388       .  A
C2145      H2152   1.083   1_565  S
C2146      C2147   1.413       .  A
C2147      C2148   1.394       .  A
C2147     Br2154   1.923       .  S
C2148      C2149   1.400       .  A
C2148      H2153   1.085       .  S
C2149      C2150   1.392       .  A
C2150     Br2151   1.914   1_565  S
C2155      C2156   1.395       .  A
C2155      C2160   1.392   1_655  A
C2155      H2162   1.080   1_655  S
C2156      C2157   1.402       .  A
C2157      C2158   1.385       .  A
C2157     Br2164   1.918       .  S
C2158      C2159   1.403   1_655  A
C2158      H2163   1.084       .  S
C2159      C2160   1.415       .  A
C2160     Br2161   1.920       .  S
C2165      C2166   1.404       .  A
C2165      C2170   1.402       .  A
C2165      H2172   1.083       .  S
C2166      C2167   1.410       .  A
C2167      C2168   1.369       .  A
C2167     Br2174   1.919       .  S
C2168      C2169   1.389       .  A
C2168      H2173   1.086       .  S
C2169      C2170   1.407       .  A
C2170     Br2171   1.916       .  S
C2175      C2176   1.403       .  A
C2175      C2180   1.391       .  A
C2175      H2182   1.085       .  S
C2176      C2177   1.411       .  A
C2177      C2178   1.417       .  A
C2177     Br2184   1.915   1_455  S
C2178      C2179   1.416       .  A
C2178      H2183   1.083       .  S
C2179      C2180   1.421       .  A
C2180     Br2181   1.928       .  S
C2185      C2186   1.401       .  A
C2185      C2190   1.407       .  A
C2185      H2192   1.083       .  S
C2186      C2187   1.419       .  A
C2187      C2188   1.416       .  A
C2187     Br2194   1.919       .  S
C2188      C2189   1.407       .  A
C2188      H2193   1.083       .  S
C2189      C2190   1.416       .  A
C2190     Br2191   1.918       .  S
C2195      C2196   1.399       .  A
C2195      C2200   1.386       .  A
C2195      H2202   1.084       .  S
C2196      C2197   1.410       .  A
C2197      C2198   1.387       .  A
C2197     Br2204   1.905       .  S
C2198      C2199   1.393       .  A
C2198      H2203   1.084       .  S
C2199      C2200   1.408       .  A
C2200     Br2201   1.919       .  S
C2205      C2206   1.399       .  A
C2205      C2210   1.384       .  A
C2205      H2212   1.084   1_565  S
C2206      C2207   1.387       .  A
C2207      C2208   1.378       .  A
C2207     Br2214   1.918       .  S
C2208      C2209   1.402       .  A
C2208      H2213   1.077       .  S
C2209      C2210   1.399       .  A
C2210     Br2211   1.919       .  S
C2215      C2216   1.421       .  A
C2215      C2220   1.439   1_565  A
C2215      H2222   1.082       .  S
C2216      C2217   1.425       .  A
C2217      C2218   1.400   1_565  A
C2217     Br2224   1.908       .  S
C2218      C2219   1.402       .  A
C2218      H2223   1.084       .  S
C2219      C2220   1.425       .  A
C2220     Br2221   1.913       .  S
C2225      C2226   1.409       .  A
C2225      C2230   1.420       .  A
C2225      H2232   1.083       .  S
C2226      C2227   1.419       .  A
C2227      C2228   1.407       .  A
C2227     Br2234   1.919       .  S
C2228      C2229   1.401       .  A
C2228      H2233   1.084       .  S
C2229      C2230   1.419       .  A
C2230     Br2231   1.917       .  S
C2235      C2236   1.398       .  A
C2235      C2240   1.382       .  A
C2235      H2242   1.085       .  S
C2236      C2237   1.405       .  A
C2237      C2238   1.398       .  A
C2237     Br2244   1.916       .  S
C2238      C2239   1.401       .  A
C2238      H2243   1.083       .  S
C2239      C2240   1.405       .  A
C2240     Br2241   1.922   1_554  S
C2245      C2246   1.415       .  A
C2245      C2250   1.422       .  A
C2245      H2252   1.083       .  S
C2246      C2247   1.420       .  A
C2247      C2248   1.434       .  A
C2247     Br2254   1.913       .  S
C2248      C2249   1.419       .  A
C2248      H2253   1.083       .  S
C2249      C2250   1.417       .  A
C2250     Br2251   1.920       .  S
C2255      C2256   1.385       .  A
C2255      C2260   1.376       .  A
C2255      H2262   1.085       .  S
C2256      C2257   1.416       .  A
C2257      C2258   1.389       .  A
C2257     Br2264   1.919       .  S
C2258      C2259   1.398       .  A
C2258      H2263   1.084   1_554  S
C2259      C2260   1.419       .  A
C2260     Br2261   1.909       .  S
C2265      C2266   1.400       .  A
C2265      C2270   1.391       .  A
C2265      H2272   1.084       .  S
C2266      C2267   1.405       .  A
C2267      C2268   1.380       .  A
C2267     Br2274   1.921       .  S
C2268      C2269   1.403       .  A
C2268      H2273   1.080       .  S
C2269      C2270   1.422       .  A
C2270     Br2271   1.926       .  S
C2275      C2276   1.403       .  A
C2275      C2280   1.402       .  A
C2275      H2282   1.082       .  S
C2276      C2277   1.409       .  A
C2277      C2278   1.388       .  A
C2277     Br2284   1.922       .  S
C2278      C2279   1.397       .  A
C2278      H2283   1.085       .  S
C2279      C2280   1.407       .  A
C2280     Br2281   1.916       .  S
C2285      C2286   1.401       .  A
C2285      C2290   1.385       .  A
C2285      H2292   1.084       .  S
C2286      C2287   1.415       .  A
C2287      C2288   1.405       .  A
C2287     Br2294   1.919       .  S
C2288      C2289   1.406       .  A
C2288      H2293   1.083       .  S
C2289      C2290   1.417       .  A
C2290     Br2291   1.926       .  S
C2295      C2296   1.423       .  A
C2295      C2300   1.419       .  A
C2295      H2302   1.083       .  S
C2296      C2297   1.409       .  A
C2297      C2298   1.408       .  A
C2297     Br2304   1.921       .  S
C2298      C2299   1.424       .  A
C2298      H2303   1.082       .  S
C2299      C2300   1.409       .  A
C2300     Br2301   1.915   1_554  S
