geometry optimzed in LAMMPS
_audit_creation_date              2020-11-30 
_audit_creation_method            'lammps2cif' 
_symmetry_space_group_name_H-M    'P1' 
_symmetry_Int_Tables_number       1 
_symmetry_cell_setting            triclinic 
loop_ 
_symmetry_equiv_pos_as_xyz 
  x,y,z 
_cell_length_a                    24.95127068 
_cell_length_b                    24.688481945548727 
_cell_length_c                    24.576992361111117 
_cell_angle_alpha                 88.25462383939592 
_cell_angle_beta                  88.32580306979936 
_cell_angle_gamma                 91.43468920246792 
loop_ 
_atom_site_label 
_atom_site_type_symbol 
_atom_site_fract_x 
_atom_site_fract_y 
_atom_site_fract_z 
_atom_site_charge 
O1          O  0.53882471  0.06873568  0.90276109    -0.77800
O2          O  0.54345987  0.08643627  0.59358619    -0.79300
O3          O  0.65809427  0.07661366  0.74250747    -0.76400
O4          O  0.51908789  0.18425832  0.76451196    -0.74800
O5          O  0.42801762  0.17168965  0.76009776    -0.76500
O6          O  0.66422475  0.98415452  0.74087245    -0.77500
O7          O  0.58134528  0.14078024  0.65670904    -0.78800
O8          O  0.58543139  0.12278663  0.83919973    -0.79100
Eu9        Eu  0.56112497  0.09543091  0.74769751     2.39200
O10         O  0.48652772  0.08521164  0.69234815    -0.86600
O11         O  0.56749683  0.01442279  0.80172460    -0.90200
C12         C  0.57146917  0.10812360  0.88862012     1.04500
C13         C  0.56942601  0.12941990  0.60725136     1.04300
C14         C  0.68472646  0.03255060  0.73878909     1.04300
C15         C  0.47048271  0.20156111  0.76800882     1.02100
H16         H  0.60411331  0.02513472  0.66779602     0.31900
O17         O  0.57305090  0.01974930  0.69188422    -0.99000
H18         H  0.47758843  0.10820958  0.82594970     0.31900
O19         O  0.48229402  0.07887448  0.80128788    -1.01500
O20         O  0.45040287  0.93643925  0.59395136    -0.78800
O21         O  0.42611722  0.93387375  0.90402046    -0.78300
O22         O  0.61310095  0.90997420  0.65553204    -0.76700
O23         O  0.38305747  0.10808438  0.65512774    -0.80100
O24         O  0.36741891  0.09501639  0.83433853    -0.77900
O25         O  0.60964361  0.90475551  0.83105265    -0.76600
O26         O  0.46687118  0.82785881  0.76195503    -0.78100
O27         O  0.32468884  0.93885635  0.73885559    -0.80000
O28         O  0.55800447  0.84254748  0.75256421    -0.76800
O29         O  0.31715561  0.03130392  0.73424269    -0.79400
O30         O  0.56989900  0.95995779  0.59152135    -0.75200
O31         O  0.55262141  0.93638995  0.89699581    -0.75200
O32         O  0.41649735  0.04995313  0.89801392    -0.74800
O33         O  0.43478714  0.06319361  0.59341020    -0.78300
O34         O  0.40407120  0.88248439  0.65798193    -0.77800
O35         O  0.38307059  0.88567671  0.83941427    -0.76100
Eu36       Eu  0.49808959  0.00813310  0.63940297     2.39800
Eu37       Eu  0.48832866  0.99979369  0.85589734     2.39600
Eu38       Eu  0.57659097  0.93933807  0.74501782     2.38400
Eu39       Eu  0.40719146  0.07350900  0.74582563     2.39900
Eu40       Eu  0.42135371  0.91683320  0.74852715     2.39800
O41         O  0.41249377  0.99389944  0.80147334    -0.90500
O42         O  0.50056722  0.92816299  0.69275739    -0.89400
C43         C  0.41941137  0.89596638  0.60868770     1.04700
C44         C  0.39147820  0.89778231  0.88943256     1.03400
C45         C  0.60503492  0.92518721  0.60569338     1.02800
C46         C  0.39951788  0.09770494  0.60641594     1.04800
C47         C  0.37846318  0.08093740  0.88352595     1.03700
C48         C  0.59175481  0.90698687  0.88044307     1.02500
C49         C  0.51617263  0.81182552  0.76168590     1.02600
C50         C  0.29715438  0.98246336  0.73290229     1.05200
H51         H  0.50014471  0.89479410  0.82459054     0.32600
O52         O  0.49798710  0.92631800  0.80056359    -1.02700
H53         H  0.38921207  0.99308262  0.66794346     0.34600
O54         O  0.41846962  0.99638521  0.69256066    -1.05200
C55         C  0.64750674  0.19374889  0.48352370    -0.00100
O56         O  0.55611918  0.08316348  0.38365645    -0.77800
O57         O  0.57207315  0.04391512  0.08076131    -0.79300
O58         O  0.66485926  0.03534391  0.25065873    -0.76400
O59         O  0.55496661  0.17305897  0.21989973    -0.74800
O60         O  0.46358937  0.17836293  0.21578583    -0.76500
O61         O  0.65416609  0.94313387  0.26128666    -0.77500
O62         O  0.61732580  0.09822293  0.13857669    -0.78800
O63         O  0.60783511  0.11776962  0.31136126    -0.79100
Eu64       Eu  0.57685325  0.07635089  0.23087119     2.39200
O65         O  0.50146602  0.07639286  0.17619763    -0.86600
O66         O  0.56296370  0.00611782  0.29745213    -0.90200
C67         C  0.59465577  0.11412770  0.36206648     1.04500
C68         C  0.60878836  0.07997332  0.09068269     1.04300
C69         C  0.68276412  0.98721669  0.26040148     1.04300
C70         C  0.51149426  0.19983448  0.21483107     1.02100
H71         H  0.60621626  0.98704984  0.16916434     0.31900
O72         O  0.57331646  0.99207583  0.18984738    -0.99000
H73         H  0.49930145  0.12256648  0.30261785     0.31900
O74         O  0.49739514  0.08834095  0.28487337    -1.01500
O75         O  0.42959203  0.93726200  0.09365876    -0.78800
O76         O  0.41677919  0.95912136  0.40283655    -0.78300
O77         O  0.59650420  0.87714078  0.17905446    -0.76700
O78         O  0.39646161  0.10837230  0.13653883    -0.80100
O79         O  0.38944670  0.13395840  0.31175146    -0.77900
O80         O  0.57750941  0.89873795  0.35168655    -0.76600
O81         O  0.42801358  0.83302056  0.24621504    -0.78100
O82         O  0.31939147  0.96551597  0.25116594    -0.80000
O83         O  0.51928524  0.82817843  0.24661384    -0.76800
O84         O  0.32603519  0.05829066  0.24273998    -0.79400
O85         O  0.55704801  0.91728164  0.10576836    -0.75200
O86         O  0.53521530  0.95774382  0.40810241    -0.75200
O87         O  0.42319236  0.08869587  0.38519006    -0.74800
O88         O  0.44767857  0.05790959  0.07902243    -0.78300
O89         O  0.37367124  0.90137023  0.16224492    -0.77800
O90         O  0.37614409  0.90089360  0.34483972    -0.76100
Eu91       Eu  0.49942275  0.99290021  0.13316908     2.39800
Eu92       Eu  0.48483443  0.01846806  0.35157255     2.39600
Eu93       Eu  0.55874655  0.92128929  0.25648300     2.38400
Eu94       Eu  0.42205493  0.08680626  0.23007879     2.39900
Eu95       Eu  0.40847305  0.92985583  0.25080932     2.39800
O96         O  0.41157439  0.01436248  0.29426478    -0.90500
O97         O  0.48698487  0.92108544  0.19770530    -0.89400
C98         C  0.38731645  0.91071982  0.11155426     1.04700
C99         C  0.38433539  0.91890154  0.39301134     1.03400
C100        C  0.58893666  0.88279643  0.12791772     1.02800
C101        C  0.41222292  0.09395088  0.08877442     1.04800
C102        C  0.39408743  0.12598043  0.36357750     1.03700
C103        C  0.56500891  0.91723216  0.39885965     1.02500
C104        C  0.47176139  0.80660912  0.24214351     1.02600
C105        C  0.29928405  0.01278040  0.24954203     1.05200
H106        H  0.47715473  0.90275771  0.33574934     0.32600
O107        O  0.48079846  0.93258877  0.30957761    -1.02700
H108        H  0.38922903  0.00398729  0.16368807     0.34600
O109        O  0.41988370  0.00317618  0.18674492    -1.05200
C110        C  0.29261184  0.84660118  0.00856808    -0.00100
C111        C  0.67195470  0.85609971  0.00130690    -0.00100
C112        C  0.64848854  0.82843466  0.49130281    -0.00100
C113        C  0.30690921  0.16048081  0.99434063    -0.00100
C114        C  0.67956092  0.17391464  0.97538608    -0.00100
C115        C  0.32790818  0.18144792  0.49794093    -0.00100
C116        C  0.32963751  0.81915971  0.51234463    -0.00100
O117        O  0.82003300  0.76632759  0.55433945    -0.77800
O118        O  0.02465671  0.75831005  0.31816794    -0.79300
O119        O  0.87630850  0.86755882  0.40350671    -0.76400
O120        O  0.87089069  0.69423590  0.38918141    -0.74800
O121        O  0.92445854  0.62614417  0.41940531    -0.76500
O122        O  0.92321529  0.92423051  0.45782409    -0.77500
O123        O  0.93358060  0.76696060  0.32543458    -0.78800
O124        O  0.81646521  0.78062195  0.46222120    -0.79100
Eu125      Eu  0.90923033  0.77642080  0.42264222     2.39200
O126        O  0.98613948  0.72353946  0.41311077    -0.86600
O127        O  0.91651114  0.82112453  0.50419605    -0.90200
C128        C  0.79432542  0.77628158  0.51055984     1.04500
C129        C  0.97705959  0.75602498  0.29855906     1.04300
C130        C  0.88619236  0.91414443  0.42396314     1.04300
C131        C  0.88468375  0.64465845  0.39234930     1.02100
H132        H  0.98444458  0.85651521  0.38514172     0.31900
O133        O  0.98772497  0.83169570  0.41596394    -0.99000
H134        H  0.88058240  0.68777009  0.49464863     0.34300
O135        O  0.91256321  0.71063689  0.49404193    -1.01500
O136        O  0.15831567  0.78392084  0.43379857    -0.78800
O137        O  0.94570189  0.74494824  0.66739548    -0.78300
O138        O  0.04476830  0.92804953  0.42431050    -0.76700
O139        O  0.05663876  0.62270047  0.41479416    -0.80100
O140        O  0.93014021  0.60441445  0.54784323    -0.77900
O141        O  0.94606567  0.91331117  0.57468147    -0.76600
O142        O  0.10692900  0.84634050  0.60319857    -0.78100
O143        O  0.10688891  0.67016911  0.58852789    -0.80000
O144        O  0.06772490  0.91428680  0.55425007    -0.76800
O145        O  0.05927536  0.61124548  0.53686466    -0.79400
O146        O  0.08817118  0.87013606  0.36807264    -0.75200
O147        O  0.89390653  0.84514720  0.61653563    -0.75200
O148        O  0.87984159  0.66045120  0.60026104    -0.74800
O149        O  0.10249298  0.69458821  0.37261298    -0.78300
O150        O  0.16174824  0.77462996  0.52691480    -0.77800
O151        O  0.03768978  0.74603157  0.66391755    -0.76100
Eu152      Eu  0.06438146  0.77791371  0.40718150     2.39800
Eu153      Eu  0.91493496  0.75615662  0.57604887     2.39600
Eu154      Eu  0.99575940  0.87552848  0.49943202     2.38400
Eu155      Eu  0.99097918  0.65852879  0.48386901     2.39900
Eu156      Eu  0.07072313  0.76034270  0.56728672     2.39800
O157        O  0.99276079  0.70372196  0.56694497    -0.90500
O158        O  0.07048020  0.82164402  0.49103924    -0.89400
C159        C  0.18356300  0.78241742  0.47882618     1.04700
C160        C  0.99142303  0.74194873  0.68954346     1.03400
C161        C  0.07433500  0.91821702  0.38166042     1.02800
C162        C  0.09359598  0.64333042  0.38122699     1.04800
C163        C  0.89326059  0.61246489  0.58479738     1.03700
C164        C  0.91134628  0.89503181  0.61074109     1.02500
C165        C  0.10138736  0.89677991  0.58920180     1.02600
C166        C  0.09620234  0.62247058  0.57090166     1.05200
H167        H  0.99667721  0.83118243  0.60780071     0.32600
O168        O  0.99409954  0.81233954  0.57411142    -1.02700
H169        H  0.09918051  0.69561752  0.47956817     0.34600
O170        O  0.06724438  0.71656153  0.48320463    -1.05200
O171        O  0.81394883  0.24795067  0.54613251    -0.77800
O172        O  0.05048767  0.26849273  0.33677454    -0.79300
O173        O  0.88750666  0.34915599  0.39294817    -0.76400
O174        O  0.89123507  0.17777705  0.37839864    -0.74800
O175        O  0.93108312  0.10898283  0.42520713    -0.76500
O176        O  0.94257343  0.40945744  0.43517561    -0.77500
O177        O  0.95882836  0.27317465  0.33340030    -0.78800
O178        O  0.81998238  0.24972352  0.45274581    -0.79100
Eu179      Eu  0.91671040  0.26055102  0.42433141     2.39200
O180        O  0.99277680  0.20598995  0.42582108    -0.86600
O181        O  0.91386106  0.31020101  0.50416686    -0.90200
C182        C  0.79335695  0.24622723  0.49889889     1.04500
C183        C  0.00642149  0.27498707  0.31125734     1.04300
C184        C  0.90622115  0.39721999  0.40055198     1.04300
C185        C  0.90295283  0.12774809  0.38606295     1.02100
H186        H  0.00245542  0.33820368  0.39917274     0.31900
O187        O  0.99771974  0.31299723  0.42982770    -0.99000
H188        H  0.87428185  0.17761924  0.49774436     0.31900
O189        O  0.90565063  0.20099868  0.50047843    -1.01500
O190        O  0.16334548  0.24131817  0.47159974    -0.78800
O191        O  0.92470101  0.25600767  0.67730871    -0.78300
O192        O  0.06838150  0.41120343  0.46154681    -0.76700
O193        O  0.04935175  0.10198552  0.45015849    -0.80100
O194        O  0.91050117  0.09800444  0.55821328    -0.77900
O195        O  0.92093140  0.40683999  0.55701494    -0.76600
O196        O  0.09359220  0.32844258  0.62328882    -0.78100
O197        O  0.07587997  0.15168984  0.61818184    -0.80000
O198        O  0.05188109  0.39885841  0.58042611    -0.76800
O199        O  0.02843148  0.09292701  0.56619963    -0.79400
O200        O  0.11782475  0.34996439  0.41480539    -0.75200
O201        O  0.86778517  0.34131905  0.60148771    -0.75200
O202        O  0.87166134  0.15924683  0.61424884    -0.74800
O203        O  0.10130955  0.16802614  0.40520802    -0.78300
O204        O  0.15283889  0.23799752  0.56461951    -0.77800
O205        O  0.01626539  0.25490263  0.68228945    -0.76100
Eu206      Eu  0.07365832  0.25808443  0.43336114     2.39800
Eu207      Eu  0.90374275  0.25100775  0.58105604     2.39600
Eu208      Eu  0.99328503  0.36302404  0.50879313     2.38400
Eu209      Eu  0.97994157  0.14633219  0.50157027     2.39900
Eu210      Eu  0.05611483  0.24544904  0.58951945     2.39800
O211        O  0.97680126  0.19297939  0.58378283    -0.90500
O212        O  0.06738350  0.30619465  0.51380255    -0.89400
C213        C  0.18171263  0.23537605  0.52016227     1.04700
C214        C  0.96851466  0.25972071  0.70347512     1.03400
C215        C  0.10851437  0.39866819  0.43076738     1.02800
C216        C  0.08828253  0.11814338  0.41788177     1.04800
C217        C  0.87854497  0.11053289  0.59776033     1.03700
C218        C  0.87975422  0.39098839  0.58643719     1.02500
C219        C  0.08544108  0.37901530  0.61470077     1.02600
C220        C  0.06126586  0.10377155  0.60370131     1.05200
H221        H  0.98087073  0.32655556  0.61677345     0.32600
O222        O  0.98291443  0.30412108  0.58538153    -1.02700
H223        H  0.08890261  0.17369685  0.51128562     0.34600
O224        O  0.05938335  0.19813672  0.50893007    -1.05200
C225        C  0.79649734  0.49750693  0.66164915    -0.00100
C226        C  0.16109444  0.50838993  0.65640916    -0.00100
C227        C  0.82216640  0.01046138  0.32406267    -0.00100
C228        C  0.82653138  0.99212224  0.69518659    -0.00100
C229        C  0.81595853  0.51215758  0.35150380    -0.00100
C230        C  0.17603606  0.51536475  0.34176270    -0.00100
C231        C  0.15712466  0.03789287  0.30620905    -0.00100
C232        C  0.15044714  0.00829533  0.68447291    -0.00100
O233        O  0.72887092  0.69076954  0.97150799    -0.77800
O234        O  0.76168669  0.45378456  0.17430623    -0.79300
O235        O  0.68051056  0.62315554  0.13003214    -0.76400
O236        O  0.85522472  0.61022784  0.10621249    -0.74800
O237        O  0.90786210  0.56347144  0.04670009    -0.76500
O238        O  0.60973040  0.58678844  0.08487582    -0.77500
O239        O  0.77384685  0.54548238  0.17978421    -0.78800
O240        O  0.74585880  0.68268847  0.06246509    -0.79100
Eu241      Eu  0.76083642  0.58632177  0.08707514     2.39200
O242        O  0.80814165  0.50758597  0.07070009    -0.86600
O243        O  0.70026863  0.59030428  0.01593766    -0.90200
C244        C  0.73141583  0.71002808  0.01983557     1.04500
C245        C  0.77179581  0.49671735  0.20098023     1.04300
C246        C  0.63030757  0.61894873  0.11958899     1.04300
C247        C  0.90110904  0.59593077  0.08624198     1.02100
H248        H  0.67884920  0.51075957  0.12689528     0.31900
O249        O  0.69770255  0.51264319  0.09203631    -0.99000
H250        H  0.82958873  0.62466945  0.00057567     0.31900
O251        O  0.80571504  0.59323827  0.00060872    -1.01500
O252        O  0.73866762  0.34216675  0.04828457    -0.78800
O253        O  0.74499852  0.57685858  0.83359310    -0.78300
O254        O  0.59210894  0.45121425  0.08570901    -0.76700
O255        O  0.89775596  0.44307225  0.03673272    -0.80100
O256        O  0.89681851  0.58572530  0.92333265    -0.77900
O257        O  0.59176868  0.59027906  0.96696390    -0.76600
O258        O  0.63819349  0.42106117  0.89695891    -0.78100
O259        O  0.81125499  0.39733839  0.88852412    -0.80000
O260        O  0.58246426  0.46712658  0.95397814    -0.76800
O261        O  0.88475825  0.44463122  0.91755782    -0.79400
O262        O  0.65896586  0.39835708  0.11784385    -0.75200
O263        O  0.65365968  0.63333195  0.90859312    -0.75200
O264        O  0.83104904  0.64446747  0.90024485    -0.74800
O265        O  0.83602618  0.39946995  0.09496869    -0.78300
O266        O  0.72072318  0.34742750  0.95739483    -0.77800
O267        O  0.74151592  0.48400651  0.83030572    -0.76100
Eu268      Eu  0.74653488  0.43405541  0.07896559     2.39800
Eu269      Eu  0.74332941  0.60129411  0.93046927     2.39600
Eu270      Eu  0.63661551  0.51882613  0.01958593     2.38400
Eu271      Eu  0.85294197  0.51284274  0.98403431     2.39900
Eu272      Eu  0.73088449  0.44334320  0.92322717     2.39800
O273        O  0.78992053  0.52040675  0.91588301    -0.90500
O274        O  0.68482771  0.43962265  0.00856991    -0.89400
C275        C  0.72666542  0.32088742  0.00310582     1.04700
C276        C  0.74633753  0.53204465  0.80777316     1.03400
C277        C  0.60897958  0.41062406  0.11478411     1.02800
C278        C  0.88381187  0.40782288  0.07451638     1.04800
C279        C  0.88081342  0.63088138  0.90149104     1.03700
C280        C  0.60536064  0.62439946  0.92779047     1.02500
C281        C  0.59118337  0.43523854  0.91386260     1.02600
C282        C  0.86242230  0.40506112  0.89203997     1.05200
H283        H  0.65914699  0.52798863  0.90501557     0.32600
O284        O  0.68381111  0.52438556  0.93435076    -1.02700
H285        H  0.81119385  0.40506506  0.99047772     0.34600
O286        O  0.79195262  0.43829527  0.99343013    -1.05200
O287        O  0.25243933  0.67724084  0.97015956    -0.77800
O288        O  0.23673387  0.43818024  0.17154908    -0.79300
O289        O  0.16662189  0.60364689  0.12487919    -0.76400
O290        O  0.34206500  0.59377456  0.11252378    -0.74800
O291        O  0.39937121  0.55107853  0.05421968    -0.76500
O292        O  0.09636678  0.55803418  0.08773568    -0.77500
O293        O  0.24081273  0.53079704  0.17674529    -0.78800
O294        O  0.25466667  0.66354756  0.06268945    -0.79100
Eu295      Eu  0.25090992  0.56806675  0.08454797     2.39200
O296        O  0.30211354  0.49020379  0.07116544    -0.86600
O297        O  0.19249083  0.57892104  0.01271254    -0.90200
C298        C  0.25591042  0.69391006  0.01949981     1.04500
C299        C  0.23427726  0.48286836  0.19815246     1.04300
C300        C  0.11600269  0.59268055  0.12036486     1.04300
C301        C  0.38946037  0.58169421  0.09505943     1.02100
H302        H  0.16987915  0.48828307  0.11878583     0.31900
O303        O  0.19258556  0.49156586  0.08626967    -0.99000
H304        H  0.32482946  0.60787593  0.00084344     0.31900
O305        O  0.30023814  0.57702084  0.00061869    -1.01500
O306        O  0.25162751  0.32381537  0.03025209    -0.78800
O307        O  0.22562674  0.56743389  0.83179802    -0.78300
O308        O  0.09105535  0.42577687  0.07013326    -0.76700
O309        O  0.39675531  0.42964872  0.03583329    -0.80100
O310        O  0.39396665  0.56496960  0.91901470    -0.77900
O311        O  0.09121304  0.57694532  0.96675339    -0.76600
O312        O  0.13562596  0.40507538  0.89951862    -0.78100
O313        O  0.30886291  0.39801633  0.87290178    -0.80000
O314        O  0.07977958  0.45100830  0.95643325    -0.76800
O315        O  0.38023453  0.43198100  0.91896036    -0.79400
O316        O  0.15615963  0.36756430  0.09657528    -0.75200
O317        O  0.15376679  0.62532142  0.91347836    -0.75200
O318        O  0.32753126  0.61817192  0.88650167    -0.74800
O319        O  0.33458665  0.38503240  0.09284946    -0.78300
O320        O  0.23624409  0.33517513  0.93900997    -0.77800
O321        O  0.21497166  0.47553059  0.82463773    -0.76100
Eu322      Eu  0.24324548  0.41352210  0.07295046     2.39800
Eu323      Eu  0.24098880  0.58713469  0.92870529     2.39600
Eu324      Eu  0.13405593  0.50280635  0.01568611     2.38400
Eu325      Eu  0.34955859  0.49908042  0.98578241     2.39900
Eu326      Eu  0.22855106  0.43307421  0.91636339     2.39800
O327        O  0.28961873  0.50821547  0.91366301    -0.90500
O328        O  0.18307674  0.42429309  0.00147766    -0.89400
C329        C  0.24795691  0.30591928  0.98135867     1.04700
C330        C  0.21595321  0.52461140  0.80423215     1.03400
C331        C  0.10665138  0.38074056  0.09234518     1.02800
C332        C  0.38292980  0.39504392  0.07412014     1.04800
C333        C  0.37699720  0.60429735  0.88847334     1.03700
C334        C  0.10570812  0.61514613  0.93218454     1.02500
C335        C  0.08900841  0.41751013  0.91879000     1.02600
C336        C  0.35904864  0.40098909  0.88328540     1.05200
H337        H  0.15469714  0.51637050  0.90253860     0.32600
O338        O  0.18042976  0.51191682  0.93079278    -1.02700
H339        H  0.30981681  0.39413702  0.98329533     0.34600
O340        O  0.28847522  0.42566969  0.98815726    -1.05200
C341        C  0.01671860  0.69630753  0.83801448    -0.00100
C342        C  0.99076938  0.33315338  0.83822267    -0.00100
C343        C  0.51083213  0.66074509  0.81297238    -0.00100
C344        C  0.49561609  0.66646201  0.17431502    -0.00100
C345        C  0.97418108  0.32364137  0.16566916    -0.00100
C346        C  0.00164694  0.68873593  0.15721295    -0.00100
C347        C  0.49132031  0.34840956  0.82766283    -0.00100
C348        C  0.47446790  0.34998181  0.18760338    -0.00100
O349        O  0.58172567  0.37901119  0.42220078    -0.77800
O350        O  0.44568124  0.47659159  0.67196582    -0.79300
O351        O  0.61369986  0.43222740  0.59374047    -0.76400
O352        O  0.45785176  0.33395283  0.54272939    -0.74800
O353        O  0.38426385  0.35826197  0.49465685    -0.76500
O354        O  0.64109451  0.52105482  0.58041336    -0.77500
O355        O  0.49727747  0.40447132  0.64927467    -0.78800
O356        O  0.57170879  0.35026834  0.51155600    -0.79100
Eu357      Eu  0.51992660  0.41645824  0.55475307     2.39200
O358        O  0.43112091  0.44855019  0.55732326    -0.86600
O359        O  0.57555940  0.47296374  0.49780855    -0.90200
C360        C  0.58698007  0.34383304  0.46230996     1.04500
C361        C  0.47114736  0.43234999  0.68350301     1.04300
C362        C  0.64797212  0.47286417  0.59809363     1.04300
C363        C  0.41256351  0.32352129  0.51925307     1.02100
H364        H  0.53422033  0.50398346  0.62233301     0.31900
O365        O  0.51935474  0.50481884  0.58659974    -0.99000
H366        H  0.48443381  0.38157606  0.45262409     0.31900
O367        O  0.48561057  0.41764977  0.46683900    -1.01500
O368        O  0.39079762  0.63155915  0.57446005    -0.78800
O369        O  0.53189440  0.53302638  0.32668123    -0.78300
O370        O  0.56286850  0.60144926  0.62324929    -0.76700
O371        O  0.31666952  0.46019725  0.53110888    -0.80100
O372        O  0.41188937  0.40658989  0.37596426    -0.77900
O373        O  0.65530391  0.55391324  0.46812002    -0.76600
O374        O  0.51539230  0.67734929  0.44967175    -0.78100
O375        O  0.36016856  0.58231801  0.40266777    -0.80000
O376        O  0.58565096  0.65466321  0.50308373    -0.76800
O377        O  0.33193911  0.49382296  0.41648039    -0.79400
O378        O  0.47530556  0.59117261  0.65348580    -0.75200
O379        O  0.63489573  0.49918714  0.39760918    -0.75200
O380        O  0.49949972  0.41839704  0.34616755    -0.74800
O381        O  0.33903106  0.51201113  0.60326932    -0.78300
O382        O  0.40239764  0.66060534  0.48525434    -0.77800
O383        O  0.47907294  0.60451748  0.34824332    -0.76100
Eu384      Eu  0.43174935  0.53812433  0.58877168     2.39800
Eu385      Eu  0.54204617  0.47280078  0.40994939     2.39600
Eu386      Eu  0.57364618  0.56184867  0.52955508     2.38400
Eu387      Eu  0.39826679  0.45062997  0.46805800     2.39900
Eu388      Eu  0.45359939  0.59447659  0.44207466     2.39800
O389        O  0.45398833  0.50590134  0.40987253    -0.90500
O390        O  0.48645200  0.59500732  0.53089314    -0.89400
C391        C  0.38541675  0.66647850  0.53399136     1.04700
C392        C  0.50705714  0.57733540  0.31499908     1.03400
C393        C  0.52391813  0.60644793  0.65907759     1.02800
C394        C  0.30538077  0.48465785  0.57614152     1.04800
C395        C  0.45174561  0.40036293  0.34120721     1.03700
C396        C  0.66741748  0.52848975  0.42410959     1.02500
C397        C  0.55976959  0.68831247  0.47438604     1.02600
C398        C  0.32515324  0.54232267  0.39941106     1.05200
H399        H  0.56486143  0.58559992  0.41668599     0.32600
O400        O  0.54198629  0.56249684  0.44032534    -1.02700
H401        H  0.36304095  0.55302377  0.50211414     0.34600
O402        O  0.39875194  0.53893577  0.50060706    -1.05200
O403        O  0.11115256  0.91307500  0.08159456    -0.77800
O404        O  0.01951444  0.05531416  0.83310783    -0.79300
O405        O  0.05789225  0.88099538  0.91107789    -0.76400
O406        O  0.15334389  0.03512591  0.96014615    -0.74800
O407        O  0.13031374  0.11186274  0.00459842    -0.76500
O408        O  0.96962907  0.85399800  0.92199921    -0.77500
O409        O  0.08766908  0.99990718  0.85789698    -0.78800
O410        O  0.13801202  0.92314072  0.99188566    -0.79100
Eu411      Eu  0.07189049  0.97459580  0.94977691     2.39200
O412        O  0.04260258  0.06470638  0.94401824    -0.86600
O413        O  0.01610416  0.91999595  0.00694801    -0.90200
C414        C  0.14519799  0.90726273  0.04074192     1.04500
C415        C  0.06369930  0.02968674  0.82382269     1.04300
C416        C  0.01782203  0.84677397  0.90577087     1.04300
C417        C  0.16393016  0.08151400  0.98152776     1.02100
H418        H  0.98643884  0.96001190  0.87953812     0.31900
O419        O  0.98548465  0.97483273  0.91533697    -0.99000
H420        H  0.10819561  0.01185572  0.05081965     0.31900
O421        O  0.07262575  0.01066991  0.03660375    -1.01500
O422        O  0.86244245  0.10371301  0.92472189    -0.78800
O423        O  0.95703763  0.96346259  0.17657322    -0.78300
O424        O  0.88534869  0.93238815  0.88281273    -0.76700
O425        O  0.02587036  0.18163852  0.97177072    -0.80100
O426        O  0.08202115  0.08899072  0.12387523    -0.77900
O427        O  0.94161765  0.83843243  0.03182207    -0.76600
O428        O  0.81726460  0.98497504  0.05785682    -0.78100
O429        O  0.91515505  0.13851957  0.10107344    -0.80000
O430        O  0.83782763  0.91200003  0.00632056    -0.76800
O431        O  0.00279305  0.16574561  0.08551188    -0.79400
O432        O  0.90170664  0.01903551  0.84925697    -0.75200
O433        O  0.99440073  0.86085628  0.10302711    -0.75200
O434        O  0.06929885  0.00185170  0.15772466    -0.74800
O435        O  0.97610343  0.15778637  0.89897900    -0.78300
O436        O  0.83420607  0.09623931  0.01439460    -0.77800
O437        O  0.88923240  0.02058484  0.15468281    -0.76100
Eu438      Eu  0.95434616  0.06378440  0.91308028     2.39800
Eu439      Eu  0.01821127  0.95476897  0.09408738     2.39600
Eu440      Eu  0.92878867  0.92181463  0.97407886     2.38400
Eu441      Eu  0.03990472  0.09877539  0.03218934     2.39900
Eu442      Eu  0.89929430  0.04529192  0.06066545     2.39800
O443        O  0.98644567  0.04391530  0.09225147    -0.90500
O444        O  0.89811791  0.01049214  0.97247610    -0.89400
C445        C  0.82813790  0.11063493  0.96469837     1.04700
C446        C  0.91422431  0.99040361  0.18795034     1.03400
C447        C  0.88200975  0.97121052  0.84615766     1.02800
C448        C  0.00078722  0.19248826  0.92722822     1.04800
C449        C  0.08688799  0.05053974  0.16060426     1.03700
C450        C  0.96797371  0.82710045  0.07520821     1.02500
C451        C  0.80565680  0.93961747  0.03507085     1.02600
C452        C  0.95568806  0.17273697  0.10429176     1.05200
H453        H  0.90684426  0.93246443  0.08696626     0.32600
O454        O  0.92963499  0.95524484  0.06296406    -1.02700
H455        H  0.93830566  0.13504962  0.99923914     0.34600
O456        O  0.95274393  0.09922448  0.00040351    -1.05200
C457        C  0.45911249  0.36007262  0.24522131    -0.10900
C458        C  0.44605641  0.37337569  0.29072202    -0.12500
C459        C  0.47384067  0.41120101  0.73850279    -0.10900
C460        C  0.48362541  0.38439891  0.77895202    -0.12500
C461        C  0.97186097  0.77277955  0.09509406    -0.10900
C462        C  0.98594559  0.73427298  0.12159988    -0.12500
C463        C  0.95166317  0.22463223  0.12832253    -0.10900
C464        C  0.96434425  0.26948708  0.14287372    -0.12500
C465        C  0.50198783  0.62950858  0.22187903    -0.10900
C466        C  0.50869620  0.60031944  0.26108245    -0.12500
C467        C  0.53266456  0.62742399  0.71177800    -0.10900
C468        C  0.52376392  0.64005725  0.75824867    -0.12500
C469        C  0.99706437  0.24702792  0.90632440    -0.10900
C470        C  0.98934588  0.28696459  0.87830124    -0.12500
C471        C  0.01863201  0.75032302  0.86318478    -0.10900
C472        C  0.02458792  0.79523286  0.88105107    -0.12500
C473        C  0.04164273  0.39037675  0.89920865    -0.14100
C474        C  0.04036780  0.36552482  0.85169891    -0.29300
H475        H  0.00593749  0.38987990  0.92575920     0.14900
H476        H  0.07549939  0.36736462  0.82435684     0.15500
C477        C  0.06462121  0.34074167  0.11311855    -0.14100
C478        C  0.02596980  0.35561151  0.14846773    -0.29300
H479        H  0.06474908  0.29984734  0.09811583     0.14900
H480        H  0.02939340  0.39628727  0.16414511     0.15500
C481        C  0.05493747  0.66732332  0.13508790    -0.14100
C482        C  0.07668789  0.62144282  0.15427352    -0.29300
H483        H  0.07317609  0.68674261  0.09844660     0.14900
H484        H  0.05783785  0.59968675  0.18912563     0.15500
C485        C  0.06359346  0.66622770  0.85977875    -0.14100
C486        C  0.06349386  0.64909929  0.91208580    -0.29300
H487        H  0.09683705  0.65611575  0.83259718     0.14900
H488        H  0.02924422  0.65616463  0.93907272     0.15500
C489        C  0.39470296  0.36794278  0.84995366    -0.14100
C490        C  0.44309208  0.35278848  0.86700506    -0.29300
H491        H  0.38369200  0.36203966  0.80807437     0.14900
H492        H  0.45113253  0.35716935  0.90995643     0.15500
C493        C  0.41588880  0.63824689  0.85421357    -0.14100
C494        C  0.46636317  0.62364552  0.84066681    -0.29300
H495        H  0.40087122  0.67649421  0.83953208     0.14900
H496        H  0.47785929  0.58276534  0.85222906     0.15500
C497        C  0.43668087  0.60122671  0.12485569    -0.14100
C498        C  0.44277124  0.65065022  0.14730835    -0.29300
H499        H  0.47008695  0.57381999  0.12586735     0.14900
H500        H  0.41087154  0.67967386  0.14453374     0.15500
C501        C  0.42633977  0.36607630  0.15562107    -0.14100
C502        C  0.42660917  0.36799626  0.10116123    -0.29300
H503        H  0.39086703  0.38015457  0.17745127     0.14900
H504        H  0.46243738  0.35801254  0.07772448     0.15500
C505        C  0.52216320  0.38795751  0.16757544    -0.14100
C506        C  0.56883297  0.37245604  0.14373995    -0.29300
H507        H  0.51541883  0.43125475  0.16900779     0.14900
H508        H  0.57795775  0.32977430  0.14355685     0.15500
C509        C  0.59276162  0.65156706  0.15100179    -0.14100
C510        C  0.54195153  0.65661570  0.13478776    -0.29300
H511        H  0.60416263  0.66451984  0.19102101     0.14900
H512        H  0.53262755  0.64558367  0.09352813     0.15500
C513        C  0.56167914  0.65611715  0.84557879    -0.14100
C514        C  0.56123599  0.65172023  0.90036722    -0.29300
H515        H  0.59862648  0.64635401  0.82366956     0.14900
H516        H  0.52415765  0.65735353  0.92355216     0.15500
C517        C  0.54346374  0.41549552  0.88440826    -0.14100
C518        C  0.54186762  0.36897850  0.85628674    -0.29300
H519        H  0.50756262  0.43936338  0.88752508     0.14900
H520        H  0.57734519  0.34432367  0.85586633     0.15500
C521        C  0.92606157  0.37371605  0.09453222    -0.14100
C522        C  0.92838664  0.35772898  0.14715909    -0.29300
H523        H  0.95786673  0.36350110  0.06572051     0.14900
H524        H  0.89793604  0.37052658  0.17626729     0.15500
C525        C  0.89734178  0.36155811  0.87125115    -0.14100
C526        C  0.94314636  0.37177485  0.84200062    -0.29300
H527        H  0.88726648  0.32028458  0.88506610     0.14900
H528        H  0.95023065  0.41287906  0.82565620     0.15500
C529        C  0.92223196  0.67232050  0.88063960    -0.14100
C530        C  0.96614519  0.65962910  0.85061351    -0.29300
H531        H  0.91711125  0.71396639  0.89228401     0.14900
H532        H  0.96820706  0.61827214  0.83678299     0.15500
C533        C  0.95063661  0.62163851  0.10499678    -0.14100
C534        C  0.95638115  0.64664802  0.15264270    -0.29300
H535        H  0.98321020  0.62471728  0.07462123     0.14900
H536        H  0.92472773  0.64317880  0.18397634     0.15500
C537        C  0.12076691  0.02026747  0.73509913    -0.10900
C538        C  0.09050274  0.03115498  0.77200729    -0.12500
C539        C  0.13139789  0.05056269  0.25429938    -0.10900
C540        C  0.11308413  0.05968306  0.21026554    -0.12500
C541        C  0.18576937  0.51458246  0.28022593    -0.14100
C542        C  0.22089280  0.48003575  0.25704844    -0.29300
H543        H  0.16489446  0.54322524  0.25444946     0.14900
H544        H  0.23966773  0.44915888  0.28187948     0.15500
C545        C  0.27246558  0.54879530  0.37767486    -0.10900
C546        C  0.22748526  0.53575193  0.36425728    -0.12500
C547        C  0.81207293  0.51930569  0.28957731    -0.14100
C548        C  0.77952459  0.48802053  0.26029040    -0.29300
H549        H  0.83529313  0.55178892  0.26840957     0.14900
H550        H  0.75856957  0.45356534  0.28049326     0.15500
C551        C  0.76357487  0.52269336  0.37849418    -0.10900
C552        C  0.72137882  0.53019377  0.40212395    -0.12500
C553        C  0.84269082  0.97523711  0.75035502    -0.10900
C554        C  0.85654778  0.96355961  0.79573018    -0.12500
C555        C  0.89028854  0.98898465  0.24141815    -0.10900
C556        C  0.86033359  0.99850658  0.27911355    -0.12500
C557        C  0.17104471  0.50188199  0.71779164    -0.14100
C558        C  0.20591325  0.53315483  0.74493306    -0.29300
H559        H  0.14886220  0.46994756  0.74092442     0.14900
H560        H  0.22599730  0.56740914  0.72352837     0.15500
C561        C  0.25121141  0.48490095  0.59866781    -0.10900
C562        C  0.21039859  0.49465799  0.62432121    -0.12500
C563        C  0.78879995  0.50103971  0.72327539    -0.14100
C564        C  0.75584526  0.53580467  0.74801075    -0.29300
H565        H  0.80900365  0.47203798  0.74928613     0.14900
H566        H  0.73685170  0.56749857  0.72446237     0.15500
C567        C  0.69919491  0.46803195  0.62364063    -0.10900
C568        C  0.74302061  0.48124637  0.64028736    -0.12500
C569        C  0.01056415  0.28661437  0.25230896    -0.14100
C570        C  0.97275734  0.31510612  0.22675805    -0.29300
H571        H  0.04523839  0.27258629  0.22948516     0.14900
H572        H  0.93964792  0.33112607  0.25054561     0.15500
C573        C  0.96292316  0.27524333  0.76076933    -0.14100
C574        C  0.99757071  0.31124842  0.78141899    -0.29300
H575        H  0.92687161  0.26262388  0.78413383     0.14900
H576        H  0.03198297  0.32518177  0.75607868     0.15500
C577        C  0.83374195  0.45547688  0.36897997    -0.14100
C578        C  0.88576383  0.44166279  0.36636562    -0.29300
H579        H  0.80551012  0.42893652  0.39232049     0.14900
H580        H  0.91532732  0.46904545  0.34620671     0.15500
C581        C  0.84198069  0.43340196  0.59949977    -0.14100
C582        C  0.83354464  0.45046347  0.65017370    -0.29300
H583        H  0.82443577  0.45510142  0.56554385     0.14900
H584        H  0.85345133  0.42959444  0.68324315     0.15500
C585        C  0.12050516  0.41576245  0.64441299    -0.14100
C586        C  0.11593179  0.46950094  0.64119109    -0.29300
H587        H  0.15482987  0.39861657  0.66431151     0.14900
H588        H  0.08021916  0.48554609  0.62285405     0.15500
C589        C  0.16008254  0.45721137  0.36226715    -0.14100
C590        C  0.14524749  0.44516151  0.41443266    -0.29300
H591        H  0.15250952  0.42645957  0.33246530     0.14900
H592        H  0.14974443  0.47677873  0.44392253     0.15500
C593        C  0.08164543  0.05709109  0.63294192    -0.14100
C594        C  0.13348417  0.05305493  0.64542027    -0.29300
H595        H  0.05288258  0.02490375  0.64529231     0.14900
H596        H  0.16229374  0.08414836  0.63033664     0.15500
C597        C  0.85415304  0.04542094  0.67452762    -0.14100
C598        C  0.84632975  0.06522849  0.62359253    -0.29300
H599        H  0.88246272  0.06608780  0.70012569     0.14900
H600        H  0.82037066  0.04255676  0.59725273     0.15500
C601        C  0.88510522  0.08892451  0.34616581    -0.14100
C602        C  0.83756625  0.06251090  0.35287047    -0.29300
H603        H  0.91488212  0.07650860  0.31638969     0.14900
H604        H  0.81061700  0.07465868  0.38569726     0.15500
C605        C  0.11876100  0.07539298  0.39304776    -0.14100
C606        C  0.14152667  0.08299355  0.34337142    -0.29300
H607        H  0.11631553  0.03582025  0.41334633     0.14900
H608        H  0.14508939  0.12411683  0.32603518     0.15500
C609        C  0.97054278  0.73724400  0.24204633    -0.14100
C610        C  0.00820956  0.70898056  0.21509712    -0.29300
H611        H  0.93234974  0.74395730  0.22314549     0.14900
H612        H  0.04593388  0.70167999  0.23478359     0.15500
C613        C  0.98819388  0.73344886  0.74889484    -0.14100
C614        C  0.02432131  0.70594126  0.77697998    -0.29300
H615        H  0.95220500  0.74670654  0.77013715     0.14900
H616        H  0.05926994  0.69076787  0.75542069     0.15500
C617        C  0.13158291  0.60714278  0.35229577    -0.14100
C618        C  0.13007393  0.55273563  0.35877614    -0.29300
H619        H  0.16508278  0.62627362  0.32917277     0.14900
H620        H  0.09575757  0.53470699  0.38153564     0.15500
C621        C  0.12884443  0.57634635  0.58821333    -0.14100
C622        C  0.14375210  0.56563915  0.63989377    -0.29300
H623        H  0.13345947  0.54486612  0.55854221     0.14900
H624        H  0.13745710  0.59554623  0.67083020     0.15500
C625        C  0.86830478  0.56112229  0.61113676    -0.14100
C626        C  0.81878364  0.55324308  0.63620160    -0.29300
H627        H  0.89382935  0.52652011  0.60758363     0.14900
H628        H  0.79337077  0.58811754  0.63959283     0.15500
C629        C  0.85050249  0.60643578  0.36440769    -0.14100
C630        C  0.85502436  0.55321596  0.37321157    -0.29300
H631        H  0.81858837  0.62188860  0.33955296     0.14900
H632        H  0.88611685  0.53927855  0.39996416     0.15500
C633        C  0.08959214  0.96600848  0.34507187    -0.14100
C634        C  0.14065548  0.98022659  0.32912614    -0.29300
H635        H  0.05873734  0.99569108  0.33895359     0.14900
H636        H  0.17205030  0.95169105  0.33761496     0.15500
C637        C  0.85636108  0.96139017  0.40587659    -0.14100
C638        C  0.82431262  0.96124309  0.36270103    -0.29300
H639        H  0.86971043  0.99925494  0.42286688     0.14900
H640        H  0.81192615  0.92237878  0.34682408     0.15500
C641        C  0.89346824  0.93488833  0.64956132    -0.14100
C642        C  0.84176378  0.94650887  0.65801320    -0.29300
H643        H  0.92435096  0.95975240  0.66772377     0.14900
H644        H  0.81113770  0.92375568  0.63711536     0.15500
C645        C  0.13673546  0.93851618  0.61274352    -0.14100
C646        C  0.13146147  0.95258866  0.66509351    -0.29300
H647        H  0.15899515  0.96568730  0.58423738     0.14900
H648        H  0.10533007  0.92737382  0.69220058     0.15500
C649        C  0.26897671  0.81841285  0.51096474    -0.14100
C650        C  0.24213498  0.78949167  0.47468859    -0.29300
H651        H  0.24614764  0.83957436  0.54177153     0.14900
H652        H  0.26372688  0.77042809  0.44167527     0.15500
C653        C  0.34572073  0.76305976  0.52754021    -0.10900
C654        C  0.36022882  0.71786350  0.54001839    -0.12500
C655        C  0.26949779  0.19717446  0.48933316    -0.14100
C656        C  0.23974170  0.22379592  0.52648788    -0.29300
H657        H  0.25066917  0.18489658  0.45216800     0.14900
H658        H  0.25756644  0.23376862  0.56485207     0.15500
C659        C  0.36281121  0.23055132  0.50434025    -0.10900
C660        C  0.39057304  0.26936721  0.51578860    -0.12500
C661        C  0.71933578  0.26159112  0.00553619    -0.14100
C662        C  0.68605790  0.23524352  0.97296833    -0.29300
H663        H  0.73985481  0.23890737  0.03693796     0.14900
H664        H  0.66413424  0.25862842  0.94308722     0.15500
C665        C  0.73293764  0.15147912  0.96388916    -0.10900
C666        C  0.77748378  0.13480497  0.95596023    -0.12500
C667        C  0.29461597  0.22016769  0.00227198    -0.14100
C668        C  0.26004756  0.24826442  0.97168993    -0.29300
H669        H  0.31305014  0.24048647  0.03594283     0.14900
H670        H  0.24256066  0.22928447  0.93682403     0.15500
C671        C  0.25645328  0.12894121  0.99277612    -0.10900
C672        C  0.21712764  0.10214382  0.98391103    -0.12500
C673        C  0.70826149  0.81651828  0.48383588    -0.14100
C674        C  0.73542460  0.78375131  0.51742257    -0.29300
H675        H  0.73090658  0.83673330  0.45024069     0.14900
H676        H  0.71475376  0.76542067  0.55315485     0.15500
C677        C  0.61472207  0.77947659  0.48131877    -0.10900
C678        C  0.58473454  0.74149799  0.47258046    -0.12500
C679        C  0.69043375  0.79815956  0.99126806    -0.14100
C680        C  0.71505556  0.76693838  0.02878024    -0.29300
H681        H  0.68460579  0.78192971  0.95118607     0.14900
H682        H  0.72209318  0.78299524  0.06859840     0.15500
C683        C  0.75260167  0.91688073  0.03804962    -0.10900
C684        C  0.71497536  0.88919033  0.02508062    -0.12500
C685        C  0.28212879  0.78834564  0.99311741    -0.14100
C686        C  0.26271499  0.75160897  0.03002224    -0.29300
H687        H  0.29068673  0.77603457  0.95169802     0.14900
H688        H  0.25542575  0.76392395  0.07165972     0.15500
C689        C  0.24076395  0.86813904  0.03011595    -0.10900
C690        C  0.19700048  0.88318379  0.04584240    -0.12500
C691        C  0.24105104  0.01291275  0.25714647    -0.14100
C692        C  0.21710439  0.04257953  0.29513921    -0.29300
H693        H  0.21760348  0.98275901  0.23615307     0.14900
H694        H  0.24133085  0.07066800  0.31804395     0.15500
C695        C  0.73966740  0.98087672  0.27397287    -0.14100
C696        C  0.76623670  0.01822507  0.30217595    -0.29300
H697        H  0.75803752  0.94227717  0.26641911     0.14900
H698        H  0.74593120  0.05562251  0.31100492     0.15500
C699        C  0.35495705  0.84063300  0.45713617    -0.14100
C700        C  0.35345264  0.89380470  0.44093735    -0.29300
H701        H  0.37805958  0.81319707  0.43252768     0.14900
H702        H  0.33366233  0.92166180  0.46783542     0.15500
C703        C  0.63309581  0.86849336  0.44711142    -0.14100
C704        C  0.58371544  0.88820124  0.44636460    -0.29300
H705        H  0.66099012  0.87884957  0.41328381     0.14900
H706        H  0.55565866  0.88082272  0.48060695     0.15500
C707        C  0.34858539  0.14591758  0.45137833    -0.14100
C708        C  0.36479567  0.16292444  0.40077071    -0.29300
H709        H  0.35421173  0.10319464  0.46140725     0.14900
H710        H  0.35805715  0.20439314  0.38721261     0.15500
C711        C  0.48151527  0.28908385  0.18191454    -0.14100
C712        C  0.51670191  0.25978110  0.21012313    -0.29300
H713        H  0.45264732  0.26708276  0.15793639     0.14900
H714        H  0.54743239  0.28019155  0.23295870     0.15500
C715        C  0.49901385  0.72577330  0.19151401    -0.14100
C716        C  0.46639771  0.74807335  0.22909874    -0.29300
H717        H  0.53059143  0.75174659  0.17250626     0.14900
H718        H  0.43264164  0.72430814  0.24671366     0.15500
C719        C  0.65629662  0.15301810  0.03176638    -0.14100
C720        C  0.64326570  0.10000286  0.04299287    -0.29300
H721        H  0.64576328  0.18252562  0.06196377     0.14900
H722        H  0.65121855  0.07106455  0.01150344     0.15500
C723        C  0.62380444  0.85108583  0.09257327    -0.14100
C724        C  0.62243830  0.85825015  0.03859030    -0.29300
H725        H  0.65794102  0.83221494  0.11094435     0.14900
H726        H  0.58702171  0.87706503  0.02244789     0.15500
C727        C  0.34788077  0.89963950  0.07038913    -0.14100
C728        C  0.33278934  0.85046057  0.05394496    -0.29300
H729        H  0.33230471  0.93529558  0.04988702     0.14900
H730        H  0.34983536  0.81432958  0.07215018     0.15500
C731        C  0.38775103  0.11988259  0.04119985    -0.14100
C732        C  0.33770273  0.13975995  0.04349865    -0.29300
H733        H  0.41075364  0.11938319  0.00315017     0.14900
H734        H  0.31652695  0.13986936  0.08282188     0.15500
C735        C  0.70803263  0.20047124  0.47476138    -0.14100
C736        C  0.73481133  0.24009048  0.49994381    -0.29300
H737        H  0.72974635  0.17332829  0.44851342     0.14900
H738        H  0.71297245  0.26490809  0.52840798     0.15500
C739        C  0.62437690  0.14842702  0.44985796    -0.14100
C740        C  0.62564157  0.15122489  0.39561329    -0.29300
H741        H  0.60288811  0.11425829  0.47015001     0.14900
H742        H  0.64842928  0.18417893  0.37472015     0.15500
C743        C  0.60926104  0.29139747  0.45470422    -0.10900
C744        C  0.62408038  0.24613211  0.46590340    -0.12500
C745        C  0.23836281  0.97581360  0.72375503    -0.14100
C746        C  0.21116383  0.01181836  0.69311711    -0.29300
H747        H  0.21737616  0.93992565  0.74097088     0.14900
H748        H  0.23392720  0.04554237  0.67358123     0.15500
C749        C  0.74298080  0.03620941  0.72920862    -0.14100
C750        C  0.76669773  0.99875138  0.69832915    -0.29300
H751        H  0.76650743  0.06743364  0.74854364     0.14900
H752        H  0.74161095  0.97011376  0.67707806     0.15500
C753        C  0.38353388  0.13108148  0.56079061    -0.14100
C754        C  0.33404929  0.14826158  0.55050215    -0.29300
H755        H  0.41590092  0.14040181  0.53100994     0.14900
H756        H  0.30030206  0.13800276  0.57817687     0.15500
C757        C  0.63413974  0.17884365  0.54373618    -0.14100
C758        C  0.58326885  0.16813261  0.56151036    -0.29300
H759        H  0.66659132  0.16824514  0.57036100     0.14900
H760        H  0.55132653  0.17599669  0.53339651     0.15500
C761        C  0.63459955  0.84938600  0.54848776    -0.14100
C762        C  0.63783180  0.90243246  0.56075135    -0.29300
H763        H  0.61235070  0.82206619  0.57698606     0.14900
H764        H  0.65566585  0.93125464  0.53078977     0.15500
C765        C  0.40091966  0.86237864  0.56528851    -0.14100
C766        C  0.34852793  0.85408079  0.55776424    -0.29300
H767        H  0.43057193  0.84685897  0.53689748     0.14900
H768        H  0.31964371  0.87294188  0.58478423     0.15500
C769        C  0.46198277  0.25928204  0.78352986    -0.14100
C770        C  0.49884854  0.28935765  0.80996325    -0.29300
H771        H  0.42335103  0.27656658  0.77538753     0.14900
H772        H  0.53635884  0.27022703  0.81940250     0.15500
C773        C  0.52801905  0.75457737  0.77341307    -0.14100
C774        C  0.49650764  0.72044739  0.80475546    -0.29300
H775        H  0.56617991  0.74043213  0.75759879     0.14900
H776        H  0.46057124  0.73659757  0.82294855     0.15500
C777        C  0.34395838  0.09780101  0.92775105    -0.14100
C778        C  0.33587317  0.14983656  0.94048247    -0.29300
H779        H  0.33093338  0.06544278  0.95656117     0.14900
H780        H  0.35068076  0.18302760  0.91364246     0.15500
C781        C  0.31558257  0.87873754  0.95791018    -0.14100
C782        C  0.36287000  0.86526497  0.93367544    -0.29300
H783        H  0.29483266  0.91403622  0.94272133     0.14900
H784        H  0.38377169  0.83046560  0.94975534     0.15500
C785        C  0.65856367  0.88456840  0.94770388    -0.14100
C786        C  0.61496661  0.87018815  0.92048637    -0.29300
H787        H  0.68058919  0.92153760  0.93442826     0.14900
H788        H  0.59098031  0.83470456  0.93401580     0.15500
C789        C  0.59559574  0.13655508  0.93340171    -0.14100
C790        C  0.64530109  0.15817765  0.92814968    -0.29300
H791        H  0.57459966  0.13339143  0.97264979     0.14900
H792        H  0.66395423  0.16234072  0.88755291     0.15500
loop_ 
_geom_bond_atom_site_label_1 
_geom_bond_atom_site_label_2 
_geom_bond_distance 
_geom_bond_site_symmetry_2 
_ccdc_geom_bond_type 
O1           C12   1.286       .  A
O1          Eu37   2.431   1_545  S
O2           C13   1.288       .  A
O2          Eu36   2.443       .  S
O3           C14   1.293       .  A
O3           Eu9   2.475       .  S
O4           C15   1.297       .  A
O4           Eu9   2.495       .  S
O5           C15   1.298       .  A
O5          Eu39   2.504       .  S
O6           C14   1.287   1_565  A
O6          Eu38   2.424       .  S
O7           C13   1.297       .  A
O7           Eu9   2.502       .  S
O8           C12   1.292       .  A
O8           Eu9   2.456       .  S
Eu9          O19   2.355       .  S
Eu9          O11   2.378       .  S
Eu9          O10   2.350       .  S
Eu9          O17   2.371       .  S
O10         Eu39   2.351       .  S
O10         Eu36   2.357       .  S
O11         Eu37   2.364   1_545  S
O11         Eu38   2.364   1_545  S
C12         C789   1.460       .  S
C13         C758   1.480       .  S
C14         C749   1.466       .  S
C15         C769   1.505       .  S
H16          O17   0.965       .  S
O17         Eu38   2.348   1_545  S
O17         Eu36   2.320       .  S
H18          O19   0.966       .  S
O19         Eu37   2.346   1_545  S
O19         Eu39   2.353       .  S
O20          C43   1.285       .  A
O20         Eu36   2.427   1_565  S
O21          C44   1.292       .  A
O21         Eu37   2.471       .  S
O22          C45   1.293       .  A
O22         Eu38   2.491       .  S
O23          C46   1.290       .  A
O23         Eu39   2.459       .  S
O24          C47   1.287       .  A
O24         Eu39   2.443       .  S
O25          C48   1.284       .  A
O25         Eu38   2.430       .  S
O26          C49   1.302       .  A
O26         Eu40   2.515       .  S
O27          C50   1.298       .  A
O27         Eu40   2.502       .  S
O28          C49   1.285       .  A
O28         Eu38   2.423       .  S
O29          C50   1.295   1_545  A
O29         Eu39   2.480       .  S
O30          C45   1.290       .  A
O30         Eu36   2.465   1_565  S
O31          C48   1.295       .  A
O31         Eu37   2.484       .  S
O32          C47   1.285       .  A
O32         Eu37   2.429   1_545  S
O33          C46   1.281       .  A
O33         Eu36   2.396       .  S
O34          C43   1.291       .  A
O34         Eu40   2.452       .  S
O35          C44   1.296       .  A
O35         Eu40   2.496       .  S
Eu36         O54   2.352   1_545  S
Eu36         O42   2.340   1_545  S
Eu37         O41   2.353       .  S
Eu37         O52   2.313       .  S
Eu38         O52   2.366       .  S
Eu38         O42   2.337       .  S
Eu39         O41   2.369   1_545  S
Eu39         O54   2.361   1_545  S
Eu40         O41   2.349       .  S
Eu40         O52   2.342       .  S
Eu40         O54   2.367       .  S
Eu40         O42   2.378       .  S
C43         C765   1.450       .  S
C44         C782   1.486       .  S
C45         C762   1.488       .  S
C46         C753   1.443       .  S
C47         C777   1.445       .  S
C48         C786   1.461       .  S
C49         C773   1.473       .  S
C50         C745   1.496       .  S
H51          O52   0.966       .  S
H53          O54   0.965       .  S
C55         C735   1.523       .  S
C55         C739   1.524       .  S
C55         C757   1.539       .  S
C55         C744   1.490       .  S
O56          C67   1.304       .  A
O56         Eu92   2.520       .  S
O57          C68   1.295       .  A
O57         Eu91   2.486   1_545  S
O58          C69   1.298   1_545  A
O58         Eu64   2.495       .  S
O59          C70   1.291       .  A
O59         Eu64   2.471       .  S
O60          C70   1.295       .  A
O60         Eu94   2.474       .  S
O61          C69   1.286       .  A
O61         Eu93   2.435       .  S
O62          C68   1.295       .  A
O62         Eu64   2.494       .  S
O63          C67   1.279       .  A
O63         Eu64   2.394       .  S
Eu64         O74   2.383       .  S
Eu64         O66   2.360       .  S
Eu64         O65   2.343       .  S
Eu64         O72   2.340   1_545  S
O65         Eu94   2.375       .  S
O65         Eu91   2.345   1_545  S
O66         Eu92   2.359       .  S
O66         Eu93   2.353   1_545  S
C67         C740   1.471       .  S
C68         C720   1.498       .  S
C69         C695   1.479       .  S
C70         C712   1.483       .  S
H71          O72   0.966       .  S
O72         Eu93   2.372       .  S
O72         Eu91   2.343       .  S
H73          O74   0.963       .  S
O74         Eu92   2.352       .  S
O74         Eu94   2.344       .  S
O75          C98   1.287       .  A
O75         Eu91   2.434       .  S
O76          C99   1.298       .  A
O76         Eu92   2.501   1_565  S
O77         C100   1.280       .  A
O77         Eu93   2.402       .  S
O78         C101   1.290       .  A
O78         Eu94   2.450       .  S
O79         C102   1.292       .  A
O79         Eu94   2.478       .  S
O80         C103   1.292       .  A
O80         Eu93   2.450       .  S
O81         C104   1.288       .  A
O81         Eu95   2.457       .  S
O82         C105   1.282   1_565  A
O82         Eu95   2.411       .  S
O83         C104   1.297       .  A
O83         Eu93   2.499       .  S
O84         C105   1.296       .  A
O84         Eu94   2.488       .  S
O85         C100   1.298       .  A
O85         Eu91   2.482       .  S
O86         C103   1.283       .  A
O86         Eu92   2.414   1_565  S
O87         C102   1.297       .  A
O87         Eu92   2.490       .  S
O88         C101   1.293       .  A
O88         Eu91   2.467   1_545  S
O89          C98   1.294       .  A
O89         Eu95   2.482       .  S
O90          C99   1.297       .  A
O90         Eu95   2.503       .  S
Eu91        O109   2.373   1_565  S
Eu91         O97   2.351       .  S
Eu92         O96   2.342       .  S
Eu92        O107   2.387   1_545  S
Eu93        O107   2.338       .  S
Eu93         O97   2.333       .  S
Eu94         O96   2.353       .  S
Eu94        O109   2.352       .  S
Eu95         O96   2.373   1_565  S
Eu95        O107   2.345       .  S
Eu95        O109   2.369   1_565  S
Eu95         O97   2.340       .  S
C98         C727   1.459       .  S
C99         C700   1.498       .  S
C100        C723   1.468       .  S
C101        C731   1.472       .  S
C102        C708   1.499       .  S
C103        C704   1.446       .  S
C104        C716   1.493       .  S
C105        C691   1.460       .  S
H106        O107   0.964       .  S
H108        O109   0.965       .  S
C110        C685   1.517   1_554  S
C110        C728   1.525       .  S
C110        C781   1.544   1_554  S
C110        C689   1.499       .  S
C111        C679   1.539   1_554  S
C111        C724   1.520       .  S
C111        C785   1.524   1_554  S
C111        C684   1.477       .  S
C112        C673   1.534       .  S
C112        C703   1.511       .  S
C112        C761   1.545       .  S
C112        C677   1.487       .  S
C113        C667   1.530   1_556  S
C113        C732   1.532   1_556  S
C113        C778   1.523       .  S
C113        C671   1.466       .  S
C114        C662   1.518       .  S
C114        C719   1.555   1_556  S
C114        C790   1.516       .  S
C114        C665   1.478       .  S
C115        C655   1.537       .  S
C115        C707   1.547       .  S
C115        C754   1.522       .  S
C115        C659   1.490       .  S
C116        C649   1.515       .  S
C116        C699   1.553       .  S
C116        C766   1.510       .  S
C116        C653   1.491       .  S
O117        C128   1.289       .  A
O117       Eu153   2.460       .  S
O118        C129   1.295   1_455  A
O118       Eu152   2.484       .  S
O119        C130   1.290       .  A
O119       Eu125   2.451       .  S
O120        C131   1.280       .  A
O120       Eu125   2.400       .  S
O121        C131   1.296       .  A
O121       Eu155   2.463       .  S
O122        C130   1.286       .  A
O122       Eu154   2.431       .  S
O123        C129   1.292       .  A
O123       Eu125   2.467       .  S
O124        C128   1.296       .  A
O124       Eu125   2.490       .  S
Eu125       O135   2.359       .  S
Eu125       O127   2.327       .  S
Eu125       O126   2.358       .  S
Eu125       O133   2.358       .  S
O126       Eu155   2.338       .  S
O126       Eu152   2.340   1_655  S
O127       Eu153   2.348       .  S
O127       Eu154   2.360       .  S
C128        C674   1.491       .  S
C129        C609   1.490       .  S
C130        C637   1.464       .  S
C131        C629   1.457       .  S
H132        O133   0.966       .  S
O133       Eu154   2.360       .  S
O133       Eu152   2.364   1_655  S
H134        O135   0.965       .  S
O135       Eu153   2.339       .  S
O135       Eu155   2.380       .  S
O136        C159   1.289       .  A
O136       Eu152   2.454       .  S
O137        C160   1.281       .  A
O137       Eu153   2.404       .  S
O138        C161   1.297       .  A
O138       Eu154   2.496   1_455  S
O139        C162   1.303       .  A
O139       Eu155   2.520   1_455  S
O140        C163   1.297       .  A
O140       Eu155   2.488       .  S
O141        C164   1.285       .  A
O141       Eu154   2.420       .  S
O142        C165   1.294       .  A
O142       Eu156   2.483       .  S
O143        C166   1.291       .  A
O143       Eu156   2.470       .  S
O144        C165   1.291       .  A
O144       Eu154   2.468   1_455  S
O145        C166   1.293       .  A
O145       Eu155   2.470   1_455  S
O146        C161   1.295       .  A
O146       Eu152   2.495       .  S
O147        C164   1.298       .  A
O147       Eu153   2.501       .  S
O148        C163   1.304       .  A
O148       Eu153   2.546       .  S
O149        C162   1.289       .  A
O149       Eu152   2.453       .  S
O150        C159   1.294       .  A
O150       Eu156   2.465       .  S
O151        C160   1.299   1_455  A
O151       Eu156   2.503       .  S
Eu152       O170   2.373       .  S
Eu152       O158   2.363       .  S
Eu153       O157   2.370       .  S
Eu153       O168   2.384       .  S
Eu154       O168   2.371       .  S
Eu154       O158   2.325   1_655  S
Eu155       O157   2.357       .  S
Eu155       O170   2.353   1_655  S
Eu156       O157   2.367   1_455  S
Eu156       O168   2.334   1_455  S
Eu156       O170   2.364       .  S
Eu156       O158   2.373       .  S
C159        C650   1.468       .  S
C160        C613   1.467       .  S
C161        C633   1.496       .  S
C162        C617   1.498       .  S
C163        C625   1.517       .  S
C164        C641   1.460       .  S
C165        C645   1.482       .  S
C166        C621   1.476       .  S
H167        O168   0.965       .  S
H169        O170   0.964       .  S
O171        C182   1.285       .  A
O171       Eu207   2.423       .  S
O172        C183   1.293       .  A
O172       Eu206   2.467       .  S
O173        C184   1.285       .  A
O173       Eu179   2.433       .  S
O174        C185   1.286       .  A
O174       Eu179   2.444       .  S
O175        C185   1.289       .  A
O175       Eu209   2.458       .  S
O176        C184   1.298       .  A
O176       Eu208   2.504       .  S
O177        C183   1.291   1_655  A
O177       Eu179   2.449       .  S
O178        C182   1.297       .  A
O178       Eu179   2.498       .  S
Eu179       O189   2.350       .  S
Eu179       O181   2.345       .  S
Eu179       O180   2.355       .  S
Eu179       O187   2.382       .  S
O180       Eu209   2.348       .  S
O180       Eu206   2.381   1_655  S
O181       Eu207   2.357       .  S
O181       Eu208   2.352       .  S
C182        C736   1.464       .  S
C183        C569   1.468       .  S
C184        C578   1.472       .  S
C185        C601   1.463       .  S
H186        O187   0.965   1_455  S
O187       Eu208   2.333       .  S
O187       Eu206   2.359   1_655  S
H188        O189   0.966       .  S
O189       Eu207   2.365       .  S
O189       Eu209   2.320       .  S
O190        C213   1.296       .  A
O190       Eu206   2.492       .  S
O191        C214   1.287       .  A
O191       Eu207   2.444       .  S
O192        C215   1.287       .  A
O192       Eu208   2.440   1_455  S
O193        C216   1.284       .  A
O193       Eu209   2.418   1_455  S
O194        C217   1.289       .  A
O194       Eu209   2.453       .  S
O195        C218   1.285       .  A
O195       Eu208   2.426       .  S
O196        C219   1.282       .  A
O196       Eu210   2.411       .  S
O197        C220   1.293       .  A
O197       Eu210   2.465       .  S
O198        C219   1.299       .  A
O198       Eu208   2.490   1_455  S
O199        C220   1.281       .  A
O199       Eu209   2.406   1_455  S
O200        C215   1.300       .  A
O200       Eu206   2.520       .  S
O201        C218   1.295       .  A
O201       Eu207   2.484       .  S
O202        C217   1.295       .  A
O202       Eu207   2.489       .  S
O203        C216   1.292       .  A
O203       Eu206   2.458       .  S
O204        C213   1.295       .  A
O204       Eu210   2.485       .  S
O205        C214   1.296   1_455  A
O205       Eu210   2.481       .  S
Eu206       O224   2.352       .  S
Eu206       O212   2.341       .  S
Eu207       O211   2.348       .  S
Eu207       O222   2.350       .  S
Eu208       O222   2.348       .  S
Eu208       O212   2.353   1_655  S
Eu209       O211   2.356       .  S
Eu209       O224   2.346   1_655  S
Eu210       O211   2.348   1_455  S
Eu210       O222   2.362   1_455  S
Eu210       O224   2.330       .  S
Eu210       O212   2.360       .  S
C213        C656   1.494       .  S
C214        C573   1.474       .  S
C215        C590   1.489       .  S
C216        C605   1.455       .  S
C217        C598   1.477       .  S
C218        C581   1.463       .  S
C219        C585   1.470       .  S
C220        C593   1.450       .  S
H221        O222   0.964       .  S
H223        O224   0.966       .  S
C225        C563   1.527       .  S
C225        C582   1.530       .  S
C225        C626   1.576       .  S
C225        C568   1.498       .  S
C226        C557   1.540       .  S
C226        C586   1.524       .  S
C226        C622   1.535       .  S
C226        C562   1.494       .  S
C227        C602   1.532       .  S
C227        C638   1.522   1_545  S
C227        C696   1.525       .  S
C227        C556   1.479   1_545  S
C228        C597   1.535   1_565  S
C228        C642   1.520       .  S
C228        C750   1.506       .  S
C228        C553   1.477       .  S
C229        C547   1.533       .  S
C229        C577   1.531       .  S
C229        C630   1.509       .  S
C229        C551   1.481       .  S
C230        C541   1.526       .  S
C230        C589   1.546       .  S
C230        C618   1.546       .  S
C230        C546   1.494       .  S
C231        C606   1.513       .  S
C231        C634   1.556   1_545  S
C231        C692   1.514       .  S
C231        C539   1.473       .  S
C232        C594   1.518       .  S
C232        C646   1.537   1_545  S
C232        C746   1.537       .  S
C232        C537   1.471       .  S
O233        C244   1.295   1_556  A
O233       Eu269   2.486       .  S
O234        C245   1.287       .  A
O234       Eu268   2.446       .  S
O235        C246   1.288       .  A
O235       Eu241   2.446       .  S
O236        C247   1.294       .  A
O236       Eu241   2.476       .  S
O237        C247   1.288       .  A
O237       Eu271   2.443   1_554  S
O238        C246   1.292       .  A
O238       Eu270   2.449       .  S
O239        C245   1.296       .  A
O239       Eu241   2.497       .  S
O240        C244   1.294       .  A
O240       Eu241   2.477       .  S
Eu241       O251   2.372       .  S
Eu241       O243   2.346       .  S
Eu241       O242   2.338       .  S
Eu241       O249   2.374       .  S
O242       Eu271   2.375   1_554  S
O242       Eu268   2.349       .  S
O243       Eu269   2.336   1_554  S
O243       Eu270   2.342       .  S
C244        C680   1.494       .  S
C245        C548   1.486       .  S
C246        C509   1.468       .  S
C247        C533   1.468       .  S
H248        O249   0.965       .  S
O249       Eu270   2.381       .  S
O249       Eu268   2.342       .  S
H250        O251   0.966       .  S
O251       Eu269   2.363   1_554  S
O251       Eu271   2.373   1_554  S
O252        C275   1.283       .  A
O252       Eu268   2.417       .  S
O253        C276   1.293       .  A
O253       Eu269   2.473       .  S
O254        C277   1.299       .  A
O254       Eu270   2.509       .  S
O255        C278   1.287       .  A
O255       Eu271   2.437   1_554  S
O256        C279   1.300       .  A
O256       Eu271   2.511       .  S
O257        C280   1.292       .  A
O257       Eu270   2.466   1_556  S
O258        C281   1.293       .  A
O258       Eu272   2.473       .  S
O259        C282   1.292       .  A
O259       Eu272   2.472       .  S
O260        C281   1.297       .  A
O260       Eu270   2.494   1_556  S
O261        C282   1.300       .  A
O261       Eu271   2.509       .  S
O262        C277   1.295       .  A
O262       Eu268   2.489       .  S
O263        C280   1.293       .  A
O263       Eu269   2.460       .  S
O264        C279   1.295       .  A
O264       Eu269   2.494       .  S
O265        C278   1.290       .  A
O265       Eu268   2.449       .  S
O266        C275   1.297   1_556  A
O266       Eu272   2.493       .  S
O267        C276   1.295       .  A
O267       Eu272   2.471       .  S
Eu268       O286   2.357   1_554  S
Eu268       O274   2.353       .  S
Eu269       O273   2.367       .  S
Eu269       O284   2.379       .  S
Eu270       O284   2.372   1_554  S
Eu270       O274   2.340       .  S
Eu271       O273   2.337       .  S
Eu271       O286   2.360       .  S
Eu272       O273   2.376       .  S
Eu272       O284   2.364       .  S
Eu272       O286   2.338       .  S
Eu272       O274   2.360   1_556  S
C275        C661   1.470       .  S
C276        C564   1.481       .  S
C277        C506   1.506       .  S
C278        C521   1.453       .  S
C279        C529   1.504       .  S
C280        C514   1.475       .  S
C281        C517   1.491       .  S
C282        C525   1.493       .  S
H283        O284   0.965       .  S
H285        O286   0.964       .  S
O287        C298   1.297   1_556  A
O287       Eu323   2.488       .  S
O288        C299   1.301       .  A
O288       Eu322   2.518       .  S
O289        C300   1.294       .  A
O289       Eu295   2.490       .  S
O290        C301   1.291       .  A
O290       Eu295   2.469       .  S
O291        C301   1.297       .  A
O291       Eu325   2.489   1_554  S
O292        C300   1.288       .  A
O292       Eu324   2.448       .  S
O293        C299   1.285       .  A
O293       Eu295   2.423       .  S
O294        C298   1.280       .  A
O294       Eu295   2.401       .  S
Eu295       O305   2.373       .  S
Eu295       O297   2.336       .  S
Eu295       O296   2.361       .  S
Eu295       O303   2.354       .  S
O296       Eu325   2.381   1_554  S
O296       Eu322   2.365       .  S
O297       Eu323   2.363   1_554  S
O297       Eu324   2.347       .  S
C298        C686   1.462       .  S
C299        C542   1.475       .  S
C300        C482   1.478       .  S
C301        C497   1.483       .  S
H302        O303   0.966       .  S
O303       Eu324   2.315       .  S
O303       Eu322   2.357       .  S
H304        O305   0.966       .  S
O305       Eu323   2.349   1_554  S
O305       Eu325   2.342   1_554  S
O306        C329   1.298   1_554  A
O306       Eu322   2.490       .  S
O307        C330   1.294       .  A
O307       Eu323   2.484       .  S
O308        C331   1.297       .  A
O308       Eu324   2.493       .  S
O309        C332   1.285       .  A
O309       Eu325   2.428   1_554  S
O310        C333   1.296       .  A
O310       Eu325   2.491       .  S
O311        C334   1.288       .  A
O311       Eu324   2.445   1_556  S
O312        C335   1.291       .  A
O312       Eu326   2.453       .  S
O313        C336   1.286       .  A
O313       Eu326   2.434       .  S
O314        C335   1.279       .  A
O314       Eu324   2.394   1_556  S
O315        C336   1.297       .  A
O315       Eu325   2.487       .  S
O316        C331   1.292       .  A
O316       Eu322   2.472       .  S
O317        C334   1.288       .  A
O317       Eu323   2.428       .  S
O318        C333   1.291       .  A
O318       Eu323   2.462       .  S
O319        C332   1.294       .  A
O319       Eu322   2.460       .  S
O320        C329   1.293       .  A
O320       Eu326   2.477       .  S
O321        C330   1.297       .  A
O321       Eu326   2.493       .  S
Eu322       O340   2.348   1_554  S
Eu322       O328   2.357       .  S
Eu323       O327   2.354       .  S
Eu323       O338   2.363       .  S
Eu324       O338   2.358   1_554  S
Eu324       O328   2.347       .  S
Eu325       O327   2.362       .  S
Eu325       O340   2.337       .  S
Eu326       O327   2.369       .  S
Eu326       O338   2.343       .  S
Eu326       O340   2.352       .  S
Eu326       O328   2.352   1_556  S
C329        C668   1.487       .  S
C330        C558   1.495       .  S
C331        C477   1.491       .  S
C332        C502   1.458       .  S
C333        C493   1.491       .  S
C334        C486   1.451       .  S
C335        C473   1.446       .  S
C336        C489   1.471       .  S
H337        O338   0.965       .  S
H339        O340   0.963       .  S
C341        C485   1.504       .  S
C341        C530   1.553   1_455  S
C341        C614   1.517       .  S
C341        C471   1.487       .  S
C342        C474   1.507   1_655  S
C342        C526   1.544       .  S
C342        C574   1.519       .  S
C342        C470   1.483       .  S
C343        C494   1.549       .  S
C343        C513   1.525       .  S
C343        C774   1.534       .  S
C343        C468   1.483       .  S
C344        C498   1.540       .  S
C344        C510   1.517       .  S
C344        C715   1.537       .  S
C344        C465   1.476       .  S
C345        C478   1.539   1_655  S
C345        C522   1.509       .  S
C345        C570   1.509       .  S
C345        C464   1.483       .  S
C346        C481   1.534       .  S
C346        C534   1.524   1_455  S
C346        C610   1.534       .  S
C346        C462   1.472   1_455  S
C347        C490   1.530       .  S
C347        C518   1.544       .  S
C347        C770   1.548       .  S
C347        C460   1.489       .  S
C348        C501   1.509       .  S
C348        C505   1.555       .  S
C348        C711   1.528       .  S
C348        C457   1.486       .  S
O349        C360   1.305       .  A
O349       Eu385   2.554       .  S
O350        C361   1.305       .  A
O350       Eu384   2.547       .  S
O351        C362   1.311       .  A
O351       Eu357   2.579       .  S
O352        C363   1.307       .  A
O352       Eu357   2.557       .  S
O353        C363   1.274       .  A
O353       Eu387   2.368       .  S
O354        C362   1.272       .  A
O354       Eu386   2.354       .  S
O355        C361   1.278       .  A
O355       Eu357   2.383       .  S
O356        C360   1.274       .  A
O356       Eu357   2.366       .  S
Eu357       O367   2.347       .  S
Eu357       O359   2.346       .  S
Eu357       O358   2.372       .  S
Eu357       O365   2.340       .  S
O358       Eu387   2.364       .  S
O358       Eu384   2.365       .  S
O359       Eu385   2.338       .  S
O359       Eu386   2.352       .  S
C360        C743   1.437       .  S
C361        C459   1.438       .  S
C362        C567   1.446       .  S
C363        C660   1.438       .  S
H364        O365   0.963       .  S
O365       Eu386   2.336       .  S
O365       Eu384   2.354       .  S
H366        O367   0.967       .  S
O367       Eu385   2.338       .  S
O367       Eu387   2.345       .  S
O368        C391   1.308       .  A
O368       Eu384   2.565       .  S
O369        C392   1.299       .  A
O369       Eu385   2.515       .  S
O370        C393   1.303       .  A
O370       Eu386   2.539       .  S
O371        C394   1.304       .  A
O371       Eu387   2.542       .  S
O372        C395   1.307       .  A
O372       Eu387   2.558       .  S
O373        C396   1.299       .  A
O373       Eu386   2.515       .  S
O374        C397   1.305       .  A
O374       Eu388   2.546       .  S
O375        C398   1.308       .  A
O375       Eu388   2.565       .  S
O376        C397   1.274       .  A
O376       Eu386   2.372       .  S
O377        C398   1.274       .  A
O377       Eu387   2.369       .  S
O378        C393   1.274       .  A
O378       Eu384   2.363       .  S
O379        C396   1.279       .  A
O379       Eu385   2.399       .  S
O380        C395   1.272       .  A
O380       Eu385   2.354       .  S
O381        C394   1.280       .  A
O381       Eu384   2.400       .  S
O382        C391   1.273       .  A
O382       Eu388   2.357       .  S
O383        C392   1.276       .  A
O383       Eu388   2.378       .  S
Eu384       O402   2.340       .  S
Eu384       O390   2.351       .  S
Eu385       O389   2.363       .  S
Eu385       O400   2.358       .  S
Eu386       O400   2.352       .  S
Eu386       O390   2.343       .  S
Eu387       O389   2.347       .  S
Eu387       O402   2.345       .  S
Eu388       O389   2.348       .  S
Eu388       O400   2.361       .  S
Eu388       O402   2.344       .  S
Eu388       O390   2.354       .  S
C391        C654   1.440       .  S
C392        C466   1.425       .  S
C393        C467   1.430       .  S
C394        C561   1.446       .  S
C395        C458   1.435       .  S
C396        C552   1.435       .  S
C397        C678   1.438       .  S
C398        C545   1.444       .  S
H399        O400   0.966       .  S
H401        O402   0.965       .  S
O403        C414   1.310       .  A
O403       Eu439   2.575       .  S
O404        C415   1.303       .  A
O404       Eu438   2.531   1_455  S
O405        C416   1.305       .  A
O405       Eu411   2.545       .  S
O406        C417   1.299       .  A
O406       Eu411   2.516   1_545  S
O407        C417   1.271   1_554  A
O407       Eu441   2.348       .  S
O408        C416   1.274   1_655  A
O408       Eu440   2.371       .  S
O409        C415   1.270   1_565  A
O409       Eu411   2.344       .  S
O410        C414   1.271   1_556  A
O410       Eu411   2.352       .  S
Eu411       O421   2.338   1_566  S
Eu411       O413   2.325   1_556  S
Eu411       O412   2.360   1_565  S
Eu411       O419   2.339   1_455  S
O412       Eu441   2.348   1_556  S
O412       Eu438   2.350   1_455  S
O413       Eu439   2.333       .  S
O413       Eu440   2.347   1_454  S
C414        C690   1.443       .  S
C415        C538   1.420       .  S
C416        C472   1.438       .  S
C417        C672   1.413       .  S
H418        O419   0.963       .  S
O419       Eu440   2.339       .  S
O419       Eu438   2.347   1_565  S
H420        O421   0.963       .  S
O421       Eu439   2.328   1_545  S
O421       Eu441   2.343       .  S
O422        C445   1.302       .  A
O422       Eu438   2.531       .  S
O423        C446   1.300       .  A
O423       Eu439   2.519   1_655  S
O424        C447   1.301       .  A
O424       Eu440   2.529       .  S
O425        C448   1.301       .  A
O425       Eu441   2.529   1_556  S
O426        C449   1.300       .  A
O426       Eu441   2.522       .  S
O427        C450   1.296       .  A
O427       Eu440   2.497   1_554  S
O428        C451   1.297       .  A
O428       Eu442   2.505   1_565  S
O429        C452   1.307       .  A
O429       Eu442   2.561       .  S
O430        C451   1.278       .  A
O430       Eu440   2.386   1_554  S
O431        C452   1.268   1_455  A
O431       Eu441   2.334       .  S
O432        C447   1.273   1_545  A
O432       Eu438   2.358       .  S
O433        C450   1.277       .  A
O433       Eu439   2.381   1_655  S
O434        C449   1.274       .  A
O434       Eu439   2.361   1_545  S
O435        C448   1.277   1_655  A
O435       Eu438   2.383       .  S
O436        C445   1.276   1_554  A
O436       Eu442   2.374       .  S
O437        C446   1.276   1_545  A
O437       Eu442   2.376       .  S
Eu438       O456   2.342   1_556  S
Eu438       O444   2.345       .  S
Eu439       O443   2.357   1_465  S
Eu439       O454   2.360   1_455  S
Eu440       O454   2.359   1_556  S
Eu440       O444   2.337   1_565  S
Eu441       O443   2.338   1_455  S
Eu441       O456   2.332   1_455  S
Eu442       O443   2.331       .  S
Eu442       O454   2.366   1_545  S
Eu442       O456   2.328       .  S
Eu442       O444   2.356   1_554  S
C445        C666   1.430       .  S
C446        C555   1.427       .  S
C447        C554   1.425       .  S
C448        C469   1.433   1_455  S
C449        C540   1.423       .  S
C450        C461   1.420       .  S
C451        C683   1.424       .  S
C452        C463   1.432       .  S
H453        O454   0.965       .  S
H455        O456   0.963   1_556  S
C457        C458   1.213       .  T
C459        C460   1.212       .  T
C461        C462   1.202       .  T
C463        C464   1.211       .  T
C465        C466   1.204       .  T
C467        C468   1.209       .  T
C469        C470   1.208       .  T
C471        C472   1.212       .  T
C473        C474   1.336       .  D
C473        H475   1.088       .  S
C474        H476   1.088       .  S
C477        C478   1.345       .  D
C477        H479   1.085       .  S
C478        H480   1.089       .  S
C481        C482   1.347       .  D
C481        H483   1.089       .  S
C482        H484   1.086       .  S
C485        C486   1.341       .  D
C485        H487   1.088       .  S
C486        H488   1.087       .  S
C489        C490   1.348       .  D
C489        H491   1.086       .  S
C490        H492   1.088       .  S
C493        C494   1.354       .  D
C493        H495   1.080       .  S
C494        H496   1.088       .  S
C497        C498   1.361       .  D
C497        H499   1.087       .  S
C498        H500   1.086       .  S
C501        C502   1.338       .  D
C501        H503   1.091       .  S
C502        H504   1.087       .  S
C505        C506   1.357       .  D
C505        H507   1.088       .  S
C506        H508   1.084       .  S
C509        C510   1.348       .  D
C509        H511   1.087       .  S
C510        H512   1.088       .  S
C513        C514   1.347       .  D
C513        H515   1.090       .  S
C514        H516   1.086       .  S
C517        C518   1.359       .  D
C517        H519   1.087       .  S
C518        H520   1.087       .  S
C521        C522   1.344       .  D
C521        H523   1.088       .  S
C522        H524   1.088       .  S
C525        C526   1.347       .  D
C525        H527   1.085       .  S
C526        H528   1.088       .  S
C529        C530   1.352       .  D
C529        H531   1.085       .  S
C530        H532   1.088       .  S
C533        C534   1.350       .  D
C533        H535   1.087       .  S
C534        H536   1.087       .  S
C537        C538   1.204       .  T
C539        C540   1.204       .  T
C541        C542   1.363       .  D
C541        H543   1.088       .  S
C542        H544   1.086       .  S
C545        C546   1.217       .  T
C547        C548   1.346       .  D
C547        H549   1.088       .  S
C548        H550   1.086       .  S
C551        C552   1.209       .  T
C553        C554   1.206       .  T
C555        C556   1.206       .  T
C557        C558   1.353       .  D
C557        H559   1.088       .  S
C558        H560   1.086       .  S
C561        C562   1.215       .  T
C563        C564   1.349       .  D
C563        H565   1.088       .  S
C564        H566   1.086       .  S
C567        C568   1.219       .  T
C569        C570   1.349   1_455  D
C569        H571   1.087       .  S
C570        H572   1.088       .  S
C573        C574   1.345       .  D
C573        H575   1.087       .  S
C574        H576   1.088   1_655  S
C577        C578   1.351       .  D
C577        H579   1.089       .  S
C578        H580   1.086       .  S
C581        C582   1.339       .  D
C581        H583   1.087       .  S
C582        H584   1.088       .  S
C585        C586   1.335       .  D
C585        H587   1.087       .  S
C586        H588   1.088       .  S
C589        C590   1.346       .  D
C589        H591   1.088       .  S
C590        H592   1.087       .  S
C593        C594   1.343       .  D
C593        H595   1.088       .  S
C594        H596   1.088       .  S
C597        C598   1.351       .  D
C597        H599   1.087       .  S
C598        H600   1.086       .  S
C601        C602   1.343       .  D
C601        H603   1.084       .  S
C602        H604   1.089       .  S
C605        C606   1.337       .  D
C605        H607   1.083       .  S
C606        H608   1.090       .  S
C609        C610   1.354   1_655  D
C609        H611   1.087       .  S
C610        H612   1.087       .  S
C613        C614   1.337   1_655  D
C613        H615   1.088       .  S
C614        H616   1.088       .  S
C617        C618   1.347       .  D
C617        H619   1.087       .  S
C618        H620   1.087       .  S
C621        C622   1.354       .  D
C621        H623   1.088       .  S
C622        H624   1.087       .  S
C625        C626   1.371       .  D
C625        H627   1.082       .  S
C626        H628   1.086       .  S
C629        C630   1.333       .  D
C629        H631   1.087       .  S
C630        H632   1.087       .  S
C633        C634   1.357       .  D
C633        H635   1.087       .  S
C634        H636   1.087       .  S
C637        C638   1.347       .  D
C637        H639   1.084       .  S
C638        H640   1.088       .  S
C641        C642   1.340       .  D
C641        H643   1.088       .  S
C642        H644   1.087       .  S
C645        C646   1.346       .  D
C645        H647   1.086       .  S
C646        H648   1.089       .  S
C649        C650   1.343       .  D
C649        H651   1.088       .  S
C650        H652   1.087       .  S
C653        C654   1.215       .  T
C655        C656   1.356       .  D
C655        H657   1.087       .  S
C656        H658   1.087       .  S
C659        C660   1.213       .  T
C661        C662   1.340   1_554  D
C661        H663   1.087       .  S
C662        H664   1.089       .  S
C665        C666   1.207       .  T
C667        C668   1.351   1_554  D
C667        H669   1.088       .  S
C668        H670   1.086       .  S
C671        C672   1.199       .  T
C673        C674   1.347       .  D
C673        H675   1.088       .  S
C674        H676   1.086       .  S
C677        C678   1.213       .  T
C679        C680   1.355   1_556  D
C679        H681   1.087       .  S
C680        H682   1.084       .  S
C683        C684   1.204       .  T
C685        C686   1.335   1_556  D
C685        H687   1.088       .  S
C686        H688   1.088       .  S
C689        C690   1.218       .  T
C691        C692   1.340       .  D
C691        H693   1.087   1_545  S
C692        H694   1.089       .  S
C695        C696   1.344   1_565  D
C695        H697   1.086       .  S
C696        H698   1.089       .  S
C699        C700   1.362       .  D
C699        H701   1.087       .  S
C700        H702   1.086       .  S
C703        C704   1.336       .  D
C703        H705   1.089       .  S
C704        H706   1.087       .  S
C707        C708   1.348       .  D
C707        H709   1.089       .  S
C708        H710   1.086       .  S
C711        C712   1.346       .  D
C711        H713   1.089       .  S
C712        H714   1.086       .  S
C715        C716   1.352       .  D
C715        H717   1.089       .  S
C716        H718   1.086       .  S
C719        C720   1.359       .  D
C719        H721   1.087       .  S
C720        H722   1.087       .  S
C723        C724   1.335       .  D
C723        H725   1.084       .  S
C724        H726   1.088       .  S
C727        C728   1.340       .  D
C727        H729   1.087       .  S
C728        H730   1.087       .  S
C731        C732   1.353       .  D
C731        H733   1.083       .  S
C732        H734   1.088       .  S
C735        C736   1.347       .  D
C735        H737   1.088       .  S
C736        H738   1.087       .  S
C739        C740   1.332       .  D
C739        H741   1.088       .  S
C740        H742   1.088       .  S
C743        C744   1.212       .  T
C745        C746   1.355   1_565  D
C745        H747   1.086       .  S
C746        H748   1.087       .  S
C749        C750   1.351   1_545  D
C749        H751   1.087       .  S
C750        H752   1.088       .  S
C753        C754   1.344       .  D
C753        H755   1.089       .  S
C754        H756   1.087       .  S
C757        C758   1.347       .  D
C757        H759   1.088       .  S
C758        H760   1.087       .  S
C761        C762   1.354       .  D
C761        H763   1.088       .  S
C762        H764   1.086       .  S
C765        C766   1.337       .  D
C765        H767   1.087       .  S
C766        H768   1.089       .  S
C769        C770   1.360       .  D
C769        H771   1.085       .  S
C770        H772   1.087       .  S
C773        C774   1.347       .  D
C773        H775   1.088       .  S
C774        H776   1.081       .  S
C777        C778   1.350       .  D
C777        H779   1.088       .  S
C778        H780   1.087       .  S
C781        C782   1.359       .  D
C781        H783   1.087       .  S
C782        H784   1.086       .  S
C785        C786   1.340       .  D
C785        H787   1.090       .  S
C786        H788   1.087       .  S
C789        C790   1.339       .  D
C789        H791   1.084       .  S
C790        H792   1.089       .  S
