geometry optimzed in LAMMPS
_audit_creation_date              2020-11-30 
_audit_creation_method            'lammps2cif' 
_symmetry_space_group_name_H-M    'P1' 
_symmetry_Int_Tables_number       1 
_symmetry_cell_setting            triclinic 
loop_ 
_symmetry_equiv_pos_as_xyz 
  x,y,z 
_cell_length_a                    28.91667903 
_cell_length_b                    42.4401345678515 
_cell_length_c                    41.68262158320292 
_cell_angle_alpha                 89.198630772897 
_cell_angle_beta                  106.44198682052503 
_cell_angle_gamma                 90.56708992741773 
loop_ 
_atom_site_label 
_atom_site_type_symbol 
_atom_site_fract_x 
_atom_site_fract_y 
_atom_site_fract_z 
_atom_site_charge 
O1          O  0.26728775  0.81557395  0.39312212    -0.57700
C2          C  0.29210997  0.91595918  0.40680332     0.75000
O3          O  0.26154669  0.86479721  0.48905351    -0.58800
C4          C  0.25245448  0.79499742  0.41032030     0.74900
C5          C  0.38608806  0.84245470  0.46834431     0.77300
Cd6        Cd  0.28604966  0.85550739  0.43776559     1.37500
O7          O  0.26219894  0.89551008  0.39098047    -0.57700
O8          O  0.36881167  0.84602894  0.43709762    -0.56500
C9          C  0.21978885  0.87454794  0.47343416     0.77300
O10         O  0.34814287  0.84347815  0.97809225    -0.58900
O11         O  0.31876616  0.90765226  0.43518936    -0.57300
O12         O  0.25178400  0.80297561  0.43923757    -0.57300
O13         O  0.20939832  0.87470782  0.44185417    -0.56500
O14         O  0.68929398  0.81125614  0.12338760    -0.57700
C15         C  0.66078542  0.90994010  0.10394385     0.75000
O16         O  0.71609128  0.86559562  0.03453336    -0.58800
C17         C  0.69737750  0.78853102  0.10624137     0.74900
C18         C  0.57830376  0.83651968  0.03461244     0.77300
Cd19       Cd  0.67334742  0.84968619  0.07613970     1.37500
O20         O  0.64240273  0.90314603  0.07355988    -0.57700
O21         O  0.58802901  0.83870448  0.06609455    -0.56500
C22         C  0.75710985  0.86751364  0.05585256     0.77300
O23         O  0.61328519  0.83983561  0.02205586    -0.58900
O24         O  0.68349407  0.88807457  0.12282173    -0.57300
O25         O  0.69415339  0.79447698  0.07589222    -0.57300
O26         O  0.75871411  0.85969668  0.08552297    -0.56500
C27         C  0.10405403  0.95117210  0.53005736    -0.10700
C28         C  0.12528124  0.98075734  0.52939554    -0.04600
C29         C  0.10174338  0.00854699  0.53279284    -0.10700
C30         C  0.04387078  0.00603715  0.02155585     0.10200
C31         C  0.01923914  0.97691170  0.02199103    -0.02500
C32         C  0.04152913  0.94803272  0.01836430     0.10000
C33         C  0.01674406  0.91950919  0.01937182    -0.12500
C34         C  0.97071502  0.91929652  0.02374860    -0.12500
C35         C  0.94801110  0.94757426  0.02734551     0.10000
C36         C  0.97230118  0.97666557  0.02622954    -0.02500
C37         C  0.02134732  0.03423500  0.02577738    -0.12600
C38         C  0.97522973  0.03397084  0.02993193    -0.12600
C39         C  0.95022860  0.00548692  0.03025855     0.10200
C40         C  0.90423084  0.00490946  0.03562661    -0.10700
C41         C  0.88080813  0.97622923  0.03661484    -0.04600
C42         C  0.90212241  0.94768663  0.03300143    -0.10700
H43         H  0.03300045  0.89709179  0.01719399     0.07500
H44         H  0.95312078  0.89674589  0.02458727     0.07500
H45         H  0.04737405  0.05723426  0.54242187     0.07700
H46         H  0.95943893  0.05628850  0.03321412     0.07700
H47         H  0.16000585  0.98229027  0.52416100     0.04100
H48         H  0.84579259  0.97606100  0.04149105     0.04100
O49         O  0.27432436  0.14469829  0.39919275    -0.57700
C50         C  0.29001015  0.04803486  0.40646758     0.75000
O51         O  0.35510797  0.09187041  0.49385737    -0.58800
C52         C  0.26619692  0.16705579  0.41665759     0.74900
C53         C  0.21779744  0.08897657  0.48036274     0.77300
Cd54       Cd  0.28760042  0.10465242  0.44470568     1.37500
O55         O  0.25092621  0.06126071  0.40615968    -0.57700
O56         O  0.20708889  0.09005542  0.44877496    -0.56500
C57         C  0.38506023  0.11049029  0.48634736     0.77300
O58         O  0.26101529  0.09601910  0.49576432    -0.58900
O59         O  0.32790972  0.06294902  0.42128444    -0.57300
O60         O  0.26528349  0.15984841  0.44597262    -0.57300
O61         O  0.36936459  0.12665313  0.45980251    -0.56500
O62         O  0.70839944  0.14263159  0.13248522    -0.57700
C63         C  0.67262851  0.04237382  0.11083908     0.75000
O64         O  0.62302547  0.11220592  0.03447973    -0.58800
C65         C  0.71093606  0.16608338  0.11369365     0.74900
C66         C  0.76975933  0.08796513  0.06470510     0.77300
Cd67       Cd  0.68723890  0.10442110  0.08617575     1.37500
O68         O  0.69587281  0.06290619  0.13115829    -0.57700
O69         O  0.77174690  0.09308426  0.09488505    -0.56500
C70         C  0.58994851  0.11662201  0.04845231     0.77300
O71         O  0.72934738  0.09283719  0.04339625    -0.58900
O72         O  0.65503979  0.05142633  0.08090185    -0.57300
O73         O  0.70208064  0.16048261  0.08283905    -0.57300
O74         O  0.60272160  0.11588799  0.08019111    -0.56500
O75         O  0.20014856  0.64491811  0.38324794    -0.57700
C76         C  0.18125526  0.54524191  0.36615155     0.75000
O77         O  0.12642848  0.61598342  0.28420508    -0.58800
C78         C  0.21062188  0.66724253  0.36587737     0.74900
C79         C  0.27399727  0.58989604  0.31919982     0.77300
Cd80       Cd  0.18923814  0.60616924  0.33765384     1.37500
O81         O  0.20529763  0.56682537  0.38444098    -0.57700
O82         O  0.27419782  0.59566876  0.34889719    -0.56500
C83         C  0.09233819  0.61660841  0.29788970     0.77300
O84         O  0.23411159  0.59348600  0.29682310    -0.58900
O85         O  0.15933431  0.55270110  0.33629018    -0.57300
O86         O  0.20968077  0.66108448  0.33612015    -0.57300
O87         O  0.10393433  0.61227460  0.32925066    -0.56500
O88         O  0.76645416  0.64309912  0.14537984    -0.57700
C89         C  0.79618654  0.54439155  0.16332237     0.75000
O90         O  0.85989324  0.61282618  0.24150309    -0.58800
C91         C  0.76408036  0.66643818  0.16356230     0.74900
C92         C  0.72178060  0.58872974  0.22843418     0.77300
Cd93       Cd  0.79046532  0.60496369  0.19279341     1.37500
O94         O  0.76227703  0.56318064  0.14953178    -0.57700
O95         O  0.71069767  0.59052691  0.19688578    -0.56500
C96         C  0.89034904  0.61480332  0.22476833     0.77300
O97         O  0.76520802  0.59505097  0.24394278    -0.58900
O98         O  0.82757538  0.55455242  0.18872969    -0.57300
O99         O  0.77359397  0.66088421  0.19455167    -0.57300
O100        O  0.87363919  0.61291812  0.19333395    -0.56500
C101        C  0.40262532  0.45402214  0.27722558    -0.10700
C102        C  0.38366360  0.48237907  0.28421221    -0.04600
C103        C  0.41043636  0.51027779  0.28840255    -0.10700
C104        C  0.45759400  0.51023106  0.28498157     0.10200
C105        C  0.47763767  0.48144677  0.27835370    -0.02500
C106        C  0.45006935  0.45321665  0.27444239     0.10000
C107        C  0.47056814  0.42497889  0.26789188    -0.12500
C108        C  0.51791926  0.42424867  0.26623520    -0.12500
C109        C  0.54596518  0.45186965  0.27023786     0.10000
C110        C  0.52551913  0.48080431  0.27601301    -0.02500
C111        C  0.48547665  0.53791058  0.28869607    -0.12600
C112        C  0.53211503  0.53743331  0.28548143    -0.12600
C113        C  0.55258671  0.50918816  0.27889857     0.10200
C114        C  0.59955035  0.50850588  0.27513454    -0.10700
C115        C  0.61967807  0.47969710  0.27053161    -0.04600
C116        C  0.59379080  0.45152242  0.26808743    -0.10700
H117        H  0.45019851  0.40316016  0.26407493     0.07500
H118        H  0.53230803  0.40186973  0.26156291     0.07500
H119        H  0.47133413  0.56014840  0.29400506     0.07700
H120        H  0.55230026  0.55933751  0.28862816     0.07700
H121        H  0.34778258  0.48254005  0.28762320     0.04100
H122        H  0.65533777  0.47939480  0.26675419     0.04100
O123        O  0.21158472  0.39166365  0.38032562    -0.57700
C124        C  0.22065286  0.29358123  0.36452256     0.75000
O125        O  0.12691249  0.34643255  0.28154832    -0.58800
C126        C  0.18672976  0.41368292  0.36316468     0.74900
C127        C  0.26837289  0.36988426  0.30453330     0.77300
Cd128      Cd  0.19269073  0.35359359  0.33310665     1.37500
O129        O  0.21135958  0.31644565  0.38089610    -0.57700
O130        O  0.27400150  0.36785781  0.33565143    -0.56500
C131        C  0.09481108  0.34120547  0.29635803     0.77300
O132        O  0.22681408  0.36322290  0.28566597    -0.58900
O133        O  0.21797091  0.29901801  0.33415922    -0.57300
O134        O  0.16344716  0.40714346  0.33346911    -0.57300
O135        O  0.10866836  0.34134027  0.32800747    -0.56500
O136        O  0.75990965  0.31479817  0.15045949    -0.57700
C137        C  0.79553040  0.41182335  0.16722748     0.75000
O138        O  0.76169646  0.36595056  0.24571355    -0.58800
C139        C  0.75884725  0.29081754  0.16882296     0.74900
C140        C  0.89141256  0.34054473  0.22721527     0.77300
Cd141      Cd  0.79095539  0.35089321  0.19745322     1.37500
O142        O  0.77120119  0.38970118  0.15006152    -0.57700
O143        O  0.87347437  0.34215479  0.19578224    -0.56500
C144        C  0.71779476  0.36712792  0.22869289     0.77300
O145        O  0.86200888  0.34143199  0.24475997    -0.58900
O146        O  0.81920652  0.40496434  0.19685390    -0.57300
O147        O  0.77401774  0.29483191  0.20007769    -0.57300
O148        O  0.70863278  0.35884715  0.19853543    -0.56500
C149        C  0.04345236  0.33691883  0.27756393    -0.06000
C150        C  0.02745108  0.34973543  0.24508763    -0.17100
C151        C  0.97837613  0.35110452  0.22792263     0.11200
C152        C  0.94400853  0.33839316  0.24299015    -0.05900
C153        C  0.96019415  0.32438166  0.27484823    -0.17100
C154        C  0.00921677  0.32322401  0.29210357     0.11200
S155        S  0.96228399  0.37195801  0.18836899    -0.32100
S156        S  0.02530865  0.30355327  0.33231251    -0.32100
H157        H  0.06569432  0.28840089  0.32722202     0.29300
H158        H  0.92717190  0.39058244  0.19637053     0.29200
H159        H  0.05310750  0.36055395  0.23367728     0.19800
H160        H  0.93435789  0.31415785  0.28650660     0.19800
C161        C  0.30725698  0.38244895  0.29150783    -0.06000
C162        C  0.29429770  0.40054763  0.26190139    -0.17100
C163        C  0.32684828  0.42205221  0.25454463     0.11200
C164        C  0.37319011  0.42541167  0.27718390    -0.05900
C165        C  0.38790886  0.40464150  0.30449582    -0.17100
C166        C  0.35576445  0.38276265  0.31153094     0.11200
S167        S  0.30586903  0.44674458  0.21780399    -0.32100
S168        S  0.37812838  0.35741482  0.34760069    -0.32100
H169        H  0.34630422  0.33234783  0.33482010     0.29300
H170        H  0.35180368  0.45332685  0.21398845     0.29200
H171        H  0.25747397  0.40010477  0.24596190     0.19800
H172        H  0.42373780  0.40688837  0.32170643     0.19800
C173        C  0.67940355  0.38060224  0.24151850    -0.06000
C174        C  0.63768006  0.39156209  0.21770545    -0.17100
C175        C  0.60707100  0.41315121  0.22608055     0.11200
C176        C  0.61709632  0.42325920  0.25945400    -0.05900
C177        C  0.65545882  0.40958121  0.28402710    -0.17100
C178        C  0.68616962  0.38789892  0.27555499     0.11200
S179        S  0.55838135  0.42866980  0.19238114    -0.32100
S180        S  0.73335804  0.37086115  0.30903701    -0.32100
H181        H  0.73234055  0.34161096  0.29332866     0.31300
H182        H  0.55866385  0.45930927  0.20470527     0.29200
H183        H  0.63098873  0.38560511  0.19146601     0.19800
H184        H  0.66270214  0.41688612  0.30994998     0.19800
C185        C  0.79715011  0.51119696  0.15296863    -0.06000
C186        C  0.75319397  0.49471353  0.14272947    -0.17100
C187        C  0.75177935  0.46170135  0.14353180     0.11200
C188        C  0.79517841  0.44465777  0.15493968    -0.05900
C189        C  0.83923093  0.46104801  0.16182762    -0.17100
C190        C  0.84067360  0.49401215  0.16027881     0.11200
S191        S  0.69354411  0.44295045  0.13518651    -0.32100
S192        S  0.89914675  0.51278259  0.16950262    -0.32100
H193        H  0.88285370  0.53985563  0.14981395     0.29300
H194        H  0.70345364  0.42094192  0.11314610     0.29200
H195        H  0.71954912  0.50751824  0.13704160     0.19800
H196        H  0.87275042  0.44816027  0.17013663     0.19800
C197        C  0.68684947  0.57720563  0.24590266    -0.06000
C198        C  0.70474533  0.56153504  0.27677762    -0.17100
C199        C  0.67494169  0.54188678  0.28950711     0.11200
C200        C  0.62655067  0.53726111  0.27067965    -0.05900
C201        C  0.60724609  0.55603604  0.24216310    -0.17100
C202        C  0.63661249  0.57659286  0.23009346     0.11200
S203        S  0.70149989  0.52110407  0.32830306    -0.32100
S204        S  0.60810474  0.60036284  0.19382115    -0.32100
H205        H  0.64085987  0.62568071  0.20273962     0.29300
H206        H  0.65784641  0.51513678  0.33596757     0.29200
H207        H  0.74289408  0.56262091  0.28988623     0.19800
H208        H  0.56978466  0.55315847  0.22795581     0.19800
C209        C  0.18099827  0.51220694  0.37743267    -0.06000
C210        C  0.22537584  0.49677168  0.38937820    -0.17100
C211        C  0.22793490  0.46378873  0.38908249     0.11200
C212        C  0.18540636  0.44598456  0.37567629    -0.05900
C213        C  0.14076761  0.46137454  0.36723764    -0.17100
C214        C  0.13813614  0.49417849  0.36866471     0.11200
S215        S  0.28679375  0.44618269  0.40159506    -0.32100
S216        S  0.07922593  0.51194844  0.35714025    -0.32100
H217        H  0.09392206  0.54021206  0.37444822     0.29300
H218        H  0.27362047  0.42320623  0.42207569     0.29200
H219        H  0.25849189  0.51044040  0.39621969     0.19800
H220        H  0.10782181  0.44788635  0.35769989     0.19800
C221        C  0.31738476  0.57684729  0.31219472    -0.06000
C222        C  0.34916415  0.55936701  0.33788014    -0.17100
C223        C  0.38438771  0.54025699  0.33146276     0.11200
C224        C  0.38775650  0.53805861  0.29849421    -0.05900
C225        C  0.35948563  0.55781635  0.27348425    -0.17100
C226        C  0.32499194  0.57769479  0.28014823     0.11200
S227        S  0.42062978  0.51673876  0.36559537    -0.32100
S228        S  0.29141499  0.60299678  0.24680351    -0.32100
H229        H  0.28678131  0.62754474  0.26802591     0.29300
H230        H  0.46021340  0.51388904  0.35259343     0.29200
H231        H  0.34459679  0.55886053  0.36293101     0.19800
H232        H  0.36251533  0.55646777  0.24809021     0.19800
C233        C  0.94262448  0.61866864  0.24149686    -0.06000
C234        C  0.95668917  0.62728132  0.27527494    -0.17100
C235        C  0.00520353  0.62927539  0.29345326     0.11200
C236        C  0.04126614  0.62073796  0.27830213    -0.05900
C237        C  0.02747928  0.61344538  0.24415057    -0.17100
C238        C  0.97890863  0.61285838  0.22549125     0.11200
S239        S  0.01827570  0.64384501  0.33552291    -0.32100
S240        S  0.96615205  0.60309883  0.18192600    -0.32100
H241        H  0.94143310  0.63145018  0.17106744     0.29300
H242        H  0.05765419  0.66251848  0.33302423     0.29200
H243        H  0.92961363  0.63287945  0.28772703     0.19800
H244        H  0.05466731  0.60735848  0.23197187     0.19800
C245        C  0.72268840  0.19840012  0.12701633    -0.06000
C246        C  0.71882262  0.20478633  0.15912061    -0.17100
C247        C  0.72788188  0.23491653  0.17280284     0.11200
C248        C  0.74250076  0.25951487  0.15442803    -0.05900
C249        C  0.74482557  0.25344938  0.12195311    -0.17100
C250        C  0.73596543  0.22334418  0.10829430     0.11200
S251        S  0.71816569  0.24039955  0.21321469    -0.32100
S252        S  0.74541924  0.21841201  0.06774915    -0.32100
H253        H  0.77479709  0.19174111  0.07770503     0.29300
H254        H  0.69566146  0.26983571  0.20484218     0.29200
H255        H  0.70768602  0.18628626  0.17355862     0.19800
H256        H  0.75596031  0.27197919  0.10755006     0.19800
C257        C  0.23383879  0.26195062  0.37946481    -0.06000
C258        C  0.26214984  0.24265333  0.36550751    -0.17100
C259        C  0.27444623  0.21202979  0.37753396     0.11200
C260        C  0.25756366  0.19990480  0.40396598    -0.05900
C261        C  0.23073527  0.21964280  0.41869503    -0.17100
C262        C  0.21796480  0.25011266  0.40640308     0.11200
S263        S  0.31291835  0.19026095  0.35864274    -0.32100
S264        S  0.17787873  0.27140744  0.42430715    -0.32100
H265        H  0.14633458  0.28008483  0.39308032     0.29300
H266        H  0.34263447  0.17865513  0.38927562     0.29200
H267        H  0.27519367  0.25155834  0.34520199     0.19800
H268        H  0.21755546  0.21079260  0.43895498     0.19800
C269        C  0.43630817  0.11244884  0.50636083    -0.06000
C270        C  0.47034730  0.12326637  0.49036701    -0.17100
C271        C  0.52256315  0.12183313  0.99373227     0.11200
C272        C  0.53854604  0.12100709  0.02917166    -0.05900
C273        C  0.50380231  0.12238885  0.04691473    -0.17100
C274        C  0.45441141  0.12264579  0.03036782     0.11200
S275        S  0.56275418  0.12463205  0.96773353    -0.32100
S276        S  0.41346151  0.12788385  0.05539584    -0.32100
H277        H  0.37987550  0.11487878  0.55239220     0.29300
H278        H  0.58981682  0.14955265  0.98607425     0.29200
H279        H  0.45848234  0.13162365  0.46467037     0.19800
H280        H  0.51501832  0.12314297  0.07400251     0.19800
C281        C  0.18293313  0.07754278  0.49820835    -0.06000
C282        C  0.20117734  0.06504864  0.53072146    -0.17100
C283        C  0.17251023  0.04593403  0.54508819     0.11200
C284        C  0.12506702  0.03830137  0.52629256    -0.05900
C285        C  0.10491221  0.05409434  0.49584701    -0.17100
C286        C  0.13295070  0.07429947  0.48205983     0.11200
S287        S  0.19070843  0.01993894  0.07220394    -0.32100
S288        S  0.10309970  0.09428623  0.44342833    -0.32100
H289        H  0.13221108  0.12151261  0.45068533     0.29300
H290        H  0.14627491  0.01456299  0.07895526     0.29200
H291        H  0.23882951  0.06828622  0.54417003     0.19800
H292        H  0.06806658  0.04898988  0.48161766     0.19800
C293        C  0.88016815  0.03321732  0.04311371    -0.06000
C294        C  0.84730832  0.04900512  0.01669100    -0.17100
C295        C  0.81329959  0.06978838  0.02280232     0.11200
C296        C  0.81157425  0.07404109  0.05608066    -0.05900
C297        C  0.84800168  0.06061986  0.08244498    -0.17100
C298        C  0.88207218  0.04032720  0.07635004     0.11200
S299        S  0.76783896  0.07265220  0.49600131    -0.32100
S300        S  0.92359232  0.02167979  0.11211346    -0.32100
H301        H  0.95933286  0.01450757  0.09659553     0.29300
H302        H  0.78521531  0.05772477  0.47184309     0.29200
H303        H  0.85146566  0.03347474  0.50314529     0.19800
H304        H  0.84814942  0.06410782  0.10813118     0.19800
C305        C  0.74907883  0.69818910  0.14929770    -0.06000
C306        C  0.72062641  0.70037985  0.11595813    -0.17100
C307        C  0.70149511  0.72915218  0.10177124     0.11200
C308        C  0.71173751  0.75693641  0.12097248    -0.05900
C309        C  0.74002875  0.75482048  0.15434894    -0.17100
C310        C  0.75941966  0.72604802  0.16851768     0.11200
S311        S  0.66238850  0.72833549  0.05955430    -0.32100
S312        S  0.79916164  0.72711118  0.21052745    -0.32100
H313        H  0.83347159  0.70688573  0.20378745     0.29300
H314        H  0.62958798  0.75037096  0.06520977     0.29200
H315        H  0.71174309  0.67928909  0.10103886     0.19800
H316        H  0.74891684  0.77599172  0.16912720     0.19800
C317        C  0.65880031  0.94260407  0.11545244    -0.06000
C318        C  0.70200767  0.95692810  0.13378464    -0.17100
C319        C  0.70638241  0.98984709  0.13620574     0.11200
C320        C  0.66670252  0.00897575  0.11987649    -0.05900
C321        C  0.62219517  0.99441005  0.10470767    -0.17100
C322        C  0.61770248  0.96159858  0.10253545     0.11200
S323        S  0.76521202  0.00596442  0.15588460    -0.32100
S324        S  0.55925364  0.94553625  0.08117531    -0.32100
H325        H  0.56683560  0.91585739  0.09718173     0.29300
H326        H  0.74802406  0.02764306  0.17493248     0.29200
H327        H  0.73385390  0.94259283  0.14374638     0.19800
H328        H  0.59122136  0.00882261  0.09249822     0.19800
C329        C  0.87558215  0.91896885  0.03792897    -0.06000
C330        C  0.83963332  0.90735189  0.01051865    -0.17100
C331        C  0.80234656  0.88805851  0.01508179     0.11200
C332        C  0.80058261  0.88053804  0.04796494    -0.05900
C333        C  0.83947501  0.88977950  0.07508283    -0.17100
C334        C  0.87658741  0.90892251  0.07047053     0.11200
S335        S  0.77505126  0.87181172  0.48556154    -0.32100
S336        S  0.92075641  0.92309723  0.10736170    -0.32100
H337        H  0.95806146  0.92747369  0.09225728     0.29300
H338        H  0.75277110  0.84507963  0.99047595     0.29200
H339        H  0.85563588  0.91295015  0.49659449     0.19800
H340        H  0.83942502  0.88403197  0.10058340     0.19800
C341        C  0.22332883  0.69913323  0.37907732    -0.06000
C342        C  0.19551936  0.71325702  0.39747095    -0.17100
C343        C  0.20275256  0.74490483  0.40684190     0.11200
C344        C  0.23918414  0.76273360  0.39816165    -0.05900
C345        C  0.26720778  0.74838043  0.38008423    -0.17100
C346        C  0.26028650  0.71677348  0.37100966     0.11200
S347        S  0.16271128  0.76153711  0.42822226    -0.32100
S348        S  0.30153591  0.69986541  0.35071786    -0.32100
H349        H  0.30283878  0.66991749  0.36587788     0.29300
H350        H  0.15956622  0.79115739  0.41216700     0.29200
H351        H  0.16673539  0.69997362  0.40337662     0.19800
H352        H  0.29614578  0.76150884  0.37418159     0.19800
C353        C  0.29434915  0.94878839  0.39476726    -0.06000
C354        C  0.25123648  0.96470192  0.37959922    -0.17100
C355        C  0.24981682  0.99777890  0.37841910     0.11200
C356        C  0.29188202  0.01534958  0.39418291    -0.05900
C357        C  0.33602673  0.99927993  0.40471134    -0.17100
C358        C  0.33773272  0.96634554  0.40450469     0.11200
S359        S  0.19300022  0.01598027  0.35774876    -0.32100
S360        S  0.39612248  0.94793699  0.41854614    -0.32100
H361        H  0.38214548  0.92018201  0.40009968     0.29300
H362        H  0.21403936  0.04220660  0.34611906     0.29200
H363        H  0.21790634  0.95147152  0.37070184     0.19800
H364        H  0.36923221  0.01221213  0.41534312     0.19800
C365        C  0.12948248  0.92405276  0.52091742    -0.06000
C366        C  0.10896138  0.91022179  0.48974462    -0.17100
C367        C  0.13643790  0.89147746  0.47476285     0.11200
C368        C  0.18611108  0.88715533  0.49101943    -0.05900
C369        C  0.19005998  0.89473062  0.01331512    -0.17100
C370        C  0.16035390  0.91286674  0.02691533     0.11200
S371        S  0.10753757  0.87418789  0.43458063    -0.32100
S372        S  0.18548409  0.92812775  0.06844491    -0.32100
H373        H  0.14095818  0.93296030  0.07498624     0.29300
H374        H  0.06006373  0.88291717  0.43280561     0.29200
H375        H  0.07220883  0.91591587  0.47614897     0.19800
H376        H  0.22727861  0.89142187  0.02763745     0.19800
C377        C  0.42987621  0.83636255  0.97682750    -0.06000
C378        C  0.44372740  0.82090103  0.00802543    -0.17100
C379        C  0.49226216  0.81799444  0.02601678     0.11200
C380        C  0.52812457  0.83233308  0.01358153    -0.05900
C381        C  0.51461639  0.84630692  0.98161197    -0.17100
C382        C  0.46616991  0.84803613  0.96292623     0.11200
S383        S  0.50601359  0.79509051  0.06425182    -0.32100
S384        S  0.46182940  0.85481906  0.42495415    -0.32100
H385        H  0.43460527  0.82747008  0.41340883     0.29300
H386        H  0.54871842  0.78238090  0.06012714     0.29200
H387        H  0.41651984  0.81084278  0.01847083     0.19800
H388        H  0.54174879  0.85713150  0.97161482     0.19800
O389        O  0.25854428  0.81496735  0.88432558    -0.57700
C390        C  0.28317033  0.91422799  0.89888018     0.75000
O391        O  0.25261775  0.86587407  0.98054353    -0.58800
C392        C  0.24696987  0.79329760  0.90192477     0.74900
C393        C  0.37778357  0.84133888  0.96082631     0.77300
Cd394      Cd  0.27791317  0.85378356  0.92996790     1.37500
O395        O  0.25062986  0.89462513  0.88468631    -0.57700
O396        O  0.36047071  0.84396100  0.92945897    -0.56500
C397        C  0.20905344  0.87113915  0.96436834     0.77300
O398        O  0.35632535  0.84428218  0.48552146    -0.58900
O399        O  0.31319440  0.90501736  0.92559428    -0.57300
O400        O  0.24888952  0.80002648  0.93169033    -0.57300
O401        O  0.19846798  0.86769661  0.93307130    -0.56500
O402        O  0.69883208  0.80470893  0.62511135    -0.57700
C403        C  0.67580703  0.90254836  0.61008333     0.75000
O404        O  0.73115729  0.86044236  0.54030460    -0.58800
C405        C  0.69960612  0.78118681  0.60677892     0.74900
C406        C  0.58806990  0.83550584  0.53985835     0.77300
Cd407      Cd  0.68522674  0.84369924  0.57953646     1.37500
O408        O  0.66020863  0.89801655  0.57895574    -0.57700
O409        O  0.59970826  0.84057473  0.57096094    -0.56500
C410        C  0.77191634  0.86003379  0.56209961     0.77300
O411        O  0.62226487  0.83448571  0.52630245    -0.58900
O412        O  0.69512923  0.87925941  0.62820977    -0.57300
O413        O  0.69337540  0.78682688  0.57597836    -0.57300
O414        O  0.77214670  0.85005811  0.59086718    -0.56500
C415        C  0.08834305  0.94856113  0.01423058    -0.10700
C416        C  0.11177622  0.97738849  0.01357068    -0.04600
C417        C  0.09065714  0.00603061  0.01727672    -0.10700
C418        C  0.05536130  0.00688948  0.53761205     0.10200
C419        C  0.03300561  0.97699548  0.53814730    -0.02500
C420        C  0.05739736  0.94900492  0.53441584     0.10000
C421        C  0.03453131  0.91970020  0.53508694    -0.12500
C422        C  0.98815642  0.91786320  0.53872821    -0.12500
C423        C  0.96328804  0.94526538  0.54217967     0.10000
C424        C  0.98585651  0.97511326  0.54190499    -0.02500
C425        C  0.03087853  0.03423318  0.54193409    -0.12600
C426        C  0.98469234  0.03233936  0.54592487    -0.12600
C427        C  0.96150617  0.00307546  0.54572333     0.10200
C428        C  0.91486403  0.00084262  0.54993303    -0.10700
C429        C  0.89322893  0.97140719  0.55021151    -0.04600
C430        C  0.91676289  0.94372181  0.54672330    -0.10700
H431        H  0.05250505  0.89785124  0.53298263     0.07500
H432        H  0.97199025  0.89478459  0.53906616     0.07500
H433        H  0.03940991  0.05673139  0.02623273     0.07700
H434        H  0.96721702  0.05406131  0.54924659     0.07700
H435        H  0.14689136  0.97758850  0.00891532     0.04100
H436        H  0.85752864  0.96997104  0.55392004     0.04100
O437        O  0.27153799  0.14304283  0.89361530    -0.57700
C438        C  0.28743128  0.04614497  0.90289819     0.75000
O439        O  0.35835707  0.10011505  0.98951546    -0.58800
C440        C  0.26415711  0.16548865  0.91126881     0.74900
C441        C  0.21641406  0.08734371  0.97339146     0.77300
Cd442      Cd  0.28835421  0.10383680  0.93963467     1.37500
O443        O  0.25338269  0.06570878  0.89409019    -0.57700
O444        O  0.20645870  0.09139703  0.94211372    -0.56500
C445        C  0.38739199  0.11468556  0.97665862     0.77300
O446        O  0.26005292  0.09208566  0.98970214    -0.58900
O447        O  0.32344367  0.05490465  0.92622132    -0.57300
O448        O  0.26700625  0.15898177  0.94145853    -0.57300
O449        O  0.37061586  0.12389849  0.94659996    -0.56500
O450        O  0.70697547  0.13352246  0.63906736    -0.57700
C451        C  0.68000466  0.03342254  0.61878594     0.75000
O452        O  0.61950916  0.10177522  0.54209252    -0.58800
C453        C  0.71823785  0.15549980  0.62159856     0.74900
C454        C  0.76998381  0.07907056  0.57340576     0.77300
Cd455      Cd  0.68700926  0.09552107  0.59319186     1.37500
O456        O  0.69040710  0.05623657  0.63907021    -0.57700
O457        O  0.76930165  0.08056594  0.60358039    -0.56500
C458        C  0.58809181  0.10672026  0.55738700     0.77300
O459        O  0.73169232  0.08743767  0.55142870    -0.58900
O460        O  0.67139834  0.04000593  0.58800523    -0.57300
O461        O  0.71467883  0.14941409  0.59136369    -0.57300
O462        O  0.60293138  0.10683977  0.58902566    -0.56500
O463        O  0.19928323  0.64321695  0.87802765    -0.57700
C464        C  0.18097877  0.54197266  0.86649398     0.75000
O465        O  0.12434357  0.60954972  0.78298340    -0.58800
C466        C  0.21112734  0.66440606  0.85997387     0.74900
C467        C  0.26935094  0.58459118  0.81178693     0.77300
Cd468      Cd  0.18940985  0.60174545  0.83538594     1.37500
O469        O  0.20648632  0.56350835  0.88404407    -0.57700
O470        O  0.27406120  0.59188194  0.84189029    -0.56500
C471        C  0.09125412  0.61100444  0.79748929     0.77300
O472        O  0.22718745  0.58667779  0.79190188    -0.58900
O473        O  0.16000055  0.54884586  0.83634725    -0.57300
O474        O  0.21273611  0.65634028  0.83123883    -0.57300
O475        O  0.10432477  0.60815792  0.82901743    -0.56500
O476        O  0.76225313  0.63473688  0.64561386    -0.57700
C477        C  0.79158459  0.53712216  0.66476764     0.75000
O478        O  0.85936465  0.60349710  0.74284884    -0.58800
C479        C  0.75723068  0.65785580  0.66328342     0.74900
C480        C  0.71977151  0.58365736  0.73073418     0.77300
Cd481      Cd  0.78818671  0.59803598  0.69431572     1.37500
O482        O  0.76160395  0.55766843  0.64940062    -0.57700
O483        O  0.70921033  0.58285567  0.69919215    -0.56500
C484        C  0.88848526  0.61008024  0.72596473     0.77300
O485        O  0.76260933  0.59167409  0.74590856    -0.58900
O486        O  0.82063405  0.54551722  0.69211302    -0.57300
O487        O  0.76515233  0.65257906  0.69424185    -0.57300
O488        O  0.87049285  0.61254805  0.69460042    -0.56500
C489        C  0.39936587  0.44747324  0.76948915    -0.10700
C490        C  0.37746549  0.47602964  0.77246538    -0.04600
C491        C  0.40338765  0.50422740  0.77794891    -0.10700
C492        C  0.45268765  0.50450356  0.77941868     0.10200
C493        C  0.47531622  0.47586576  0.77550553    -0.02500
C494        C  0.44865867  0.44717829  0.77063638     0.10000
C495        C  0.47181281  0.41910859  0.76684450    -0.12500
C496        C  0.52027833  0.41920394  0.76764215    -0.12500
C497        C  0.54717972  0.44737646  0.77223168     0.10000
C498        C  0.52475134  0.47589474  0.77669128    -0.02500
C499        C  0.47988502  0.53251407  0.78495888    -0.12600
C500        C  0.52834807  0.53257259  0.78580754    -0.12600
C501        C  0.55113726  0.50464831  0.78102238     0.10200
C502        C  0.59948809  0.50480144  0.77987405    -0.10700
C503        C  0.62129900  0.47636305  0.77605319    -0.04600
C504        C  0.59571212  0.44794892  0.77165341    -0.10700
H505        H  0.45240611  0.39692441  0.76270434     0.07500
H506        H  0.53648336  0.39702136  0.76442110     0.07500
H507        H  0.46371718  0.55465881  0.78835042     0.07700
H508        H  0.54787238  0.55471506  0.79015920     0.07700
H509        H  0.34007815  0.47602293  0.77292726     0.04100
H510        H  0.65763414  0.47669768  0.77347435     0.04100
O511        O  0.20628381  0.38938768  0.88020737    -0.57700
C512        C  0.21020841  0.29082235  0.85904339     0.75000
O513        O  0.11967062  0.34712036  0.77993712    -0.58800
C514        C  0.17906781  0.41116960  0.86457164     0.74900
C515        C  0.26238451  0.36947473  0.80298530     0.77300
Cd516      Cd  0.18581711  0.35266924  0.83155636     1.37500
O517        O  0.20178909  0.31287357  0.87679848    -0.57700
O518        O  0.26915261  0.36420728  0.83388043    -0.56500
C519        C  0.08807564  0.34022286  0.79474791     0.77300
O520        O  0.21933645  0.36662590  0.78469017    -0.58900
O521        O  0.20830995  0.29782847  0.82912496    -0.57300
O522        O  0.15404573  0.40486831  0.83521251    -0.57300
O523        O  0.10230644  0.33899373  0.82636892    -0.56500
O524        O  0.76329647  0.30490619  0.65034558    -0.57700
C525        C  0.78424017  0.40439569  0.66266635     0.75000
O526        O  0.75765863  0.35982218  0.74406868    -0.58800
C527        C  0.76028789  0.28214448  0.66975638     0.74900
C528        C  0.88460412  0.33767669  0.72670851     0.77300
Cd529      Cd  0.78401375  0.34401740  0.69527482     1.37500
O530        O  0.75181855  0.38433522  0.64961576    -0.57700
O531        O  0.86710767  0.33648565  0.69523911    -0.56500
C532        C  0.71344794  0.36121888  0.72780690     0.77300
O533        O  0.85490817  0.33994534  0.74392850    -0.58900
O534        O  0.81662383  0.39515174  0.68812764    -0.57300
O535        O  0.76875825  0.28822349  0.70049409    -0.57300
O536        O  0.70244904  0.35183299  0.69792576    -0.56500
C537        C  0.03675834  0.33563390  0.77612428    -0.06000
C538        C  0.01979614  0.34985838  0.74440285    -0.17100
C539        C  0.97058018  0.35088505  0.72771156     0.11200
C540        C  0.93709500  0.33678445  0.74264568    -0.05900
C541        C  0.95412409  0.32155459  0.77377045    -0.17100
C542        C  0.00341769  0.32021676  0.79029150     0.11200
S543        S  0.95300584  0.37275055  0.68879370    -0.32100
S544        S  0.02118239  0.29746766  0.82861950    -0.32100
H545        H  0.06209807  0.28454828  0.82193585     0.29300
H546        H  0.91517557  0.38863804  0.69656672     0.29200
H547        H  0.04479060  0.36181985  0.73321245     0.19800
H548        H  0.92884346  0.31005559  0.78506546     0.19800
C549        C  0.30199329  0.38065257  0.78948244    -0.06000
C550        C  0.29005160  0.39619620  0.75824734    -0.17100
C551        C  0.32416564  0.41461828  0.74844008     0.11200
C552        C  0.37059438  0.41865533  0.77079424    -0.05900
C553        C  0.38423433  0.40001343  0.79989898    -0.17100
C554        C  0.35090663  0.38029748  0.80891863     0.11200
S555        S  0.30549826  0.43470201  0.70848357    -0.32100
S556        S  0.37293269  0.35627243  0.84601576    -0.32100
H557        H  0.34218955  0.33064631  0.83338235     0.29300
H558        H  0.35234323  0.43942659  0.70549162     0.29200
H559        H  0.25326510  0.39570377  0.74224787     0.19800
H560        H  0.42019432  0.40240781  0.81689304     0.19800
C561        C  0.67700452  0.37647864  0.74106516    -0.06000
C562        C  0.63755311  0.39044754  0.71760058    -0.17100
C563        C  0.60925089  0.41289492  0.72705748     0.11200
C564        C  0.61909403  0.42075272  0.76112292    -0.05900
C565        C  0.65566008  0.40486004  0.78500904    -0.17100
C566        C  0.68436427  0.38253082  0.77543892     0.11200
S567        S  0.56352701  0.43208394  0.69404607    -0.32100
S568        S  0.72990869  0.36303702  0.80806693    -0.32100
H569        H  0.72656680  0.33437846  0.79094518     0.31300
H570        H  0.56681213  0.46187820  0.70878315     0.29200
H571        H  0.63106368  0.38598667  0.69103798     0.19800
H572        H  0.66282916  0.41064598  0.81136417     0.19800
C573        C  0.79072986  0.50417285  0.65336677    -0.06000
C574        C  0.74588969  0.48896720  0.64118967    -0.17100
C575        C  0.74241434  0.45594453  0.63984769     0.11200
C576        C  0.78472198  0.43765245  0.65123641    -0.05900
C577        C  0.82965508  0.45313943  0.65945260    -0.17100
C578        C  0.83313906  0.48597603  0.66051327     0.11200
S579        S  0.68289215  0.43883376  0.62754225    -0.32100
S580        S  0.89283653  0.50305663  0.67308945    -0.32100
H581        H  0.87971638  0.53160057  0.65543215     0.29300
H582        H  0.69444941  0.41711785  0.60585170     0.29200
H583        H  0.71310812  0.50267246  0.63532463     0.19800
H584        H  0.86250720  0.43950883  0.66732211     0.19800
C585        C  0.68494446  0.57315863  0.74872048    -0.06000
C586        C  0.70279757  0.55914579  0.78051181    -0.17100
C587        C  0.67314808  0.54002994  0.79400736     0.11200
C588        C  0.62525350  0.53403398  0.77493057    -0.05900
C589        C  0.60584894  0.55149885  0.74545086    -0.17100
C590        C  0.63485680  0.57168257  0.73266938     0.11200
S591        S  0.69910151  0.52179432  0.83432133    -0.32100
S592        S  0.60618082  0.59372965  0.69513243    -0.32100
H593        H  0.63876301  0.61925874  0.70255675     0.29300
H594        H  0.65489124  0.51672190  0.84151577     0.29200
H595        H  0.74077054  0.56108097  0.79383480     0.19800
H596        H  0.56871167  0.54769944  0.73098762     0.19800
C597        C  0.17698534  0.50957257  0.87882675    -0.06000
C598        C  0.21923047  0.49302735  0.89470354    -0.17100
C599        C  0.21956918  0.45991735  0.89511276     0.11200
C600        C  0.17739934  0.44320918  0.87795178    -0.05900
C601        C  0.13400497  0.45983754  0.86635200    -0.17100
C602        C  0.13323138  0.49269722  0.86737787     0.11200
S603        S  0.27595124  0.44064154  0.91424891    -0.32100
S604        S  0.07581673  0.51200867  0.85143069    -0.32100
H605        H  0.08981908  0.53999135  0.86944256     0.29300
H606        H  0.25508728  0.41807460  0.93105029     0.29200
H607        H  0.25286677  0.50577051  0.90424376     0.19800
H608        H  0.10092997  0.44729557  0.85438412     0.19800
C609        C  0.31045926  0.57163171  0.80165413    -0.06000
C610        C  0.34963822  0.55968279  0.82702537    -0.17100
C611        C  0.38301547  0.53951170  0.81976068     0.11200
C612        C  0.37803784  0.53159364  0.78620941    -0.05900
C613        C  0.34204244  0.54601894  0.76058653    -0.17100
C614        C  0.30884618  0.56648205  0.76788060     0.11200
S615        S  0.42883875  0.52293326  0.85461414    -0.32100
S616        S  0.26526455  0.58479805  0.73313272    -0.32100
H617        H  0.26479784  0.61341473  0.74971256     0.29300
H618        H  0.42898081  0.49267406  0.84142048     0.29200
H619        H  0.35229010  0.56394397  0.85317718     0.19800
H620        H  0.33864776  0.54026947  0.73465173     0.19800
C621        C  0.94082567  0.61380514  0.74234489    -0.06000
C622        C  0.95575290  0.62414635  0.77554941    -0.17100
C623        C  0.00454777  0.62516274  0.79357443     0.11200
C624        C  0.03979719  0.61465214  0.77854733    -0.05900
C625        C  0.02495299  0.60519657  0.74502475    -0.17100
C626        C  0.97622381  0.60486531  0.72679252     0.11200
S627        S  0.01900275  0.64037998  0.83545964    -0.32100
S628        S  0.96142972  0.58989941  0.68489648    -0.32100
H629        H  0.94129789  0.61862024  0.67050418     0.29300
H630        H  0.05890744  0.65818576  0.83240787     0.29200
H631        H  0.92910091  0.63149904  0.78765779     0.19800
H632        H  0.05135304  0.59692981  0.73315032     0.19800
C633        C  0.73259680  0.18716144  0.63527593    -0.06000
C634        C  0.71184127  0.19843856  0.65945086    -0.17100
C635        C  0.71898288  0.22955088  0.67036120     0.11200
C636        C  0.74853869  0.24988510  0.65743867    -0.05900
C637        C  0.76990561  0.23855291  0.63364630    -0.17100
C638        C  0.76298239  0.20736957  0.62286164     0.11200
S639        S  0.68695325  0.24224272  0.69922377    -0.32100
S640        S  0.79595306  0.19455622  0.59464282    -0.32100
H641        H  0.80584183  0.16436239  0.60923883     0.29300
H642        H  0.67740873  0.27277372  0.68549201     0.29200
H643        H  0.68805936  0.18332875  0.66885681     0.19800
H644        H  0.79354418  0.25378991  0.62425219     0.19800
C645        C  0.22260014  0.25858394  0.87230861    -0.06000
C646        C  0.25335140  0.24072796  0.85902333    -0.17100
C647        C  0.26840694  0.21063941  0.87156359     0.11200
C648        C  0.25166378  0.19759741  0.89763467    -0.05900
C649        C  0.22086788  0.21544864  0.91085176    -0.17100
C650        C  0.20541926  0.24536439  0.89806968     0.11200
S651        S  0.31087601  0.19102010  0.85437231    -0.32100
S652        S  0.16120431  0.26431981  0.91411493    -0.32100
H653        H  0.13324589  0.27518612  0.88259372     0.29300
H654        H  0.33929254  0.17935372  0.88538806     0.29200
H655        H  0.26695111  0.25062594  0.83939038     0.19800
H656        H  0.20719339  0.20555133  0.93044781     0.19800
C657        C  0.43868809  0.11978935  0.99522885    -0.06000
C658        C  0.47314743  0.12048046  0.97733086    -0.17100
C659        C  0.51981849  0.12284018  0.50660753     0.11200
C660        C  0.53630354  0.11092919  0.53968606    -0.05900
C661        C  0.50220938  0.10138714  0.55617076    -0.17100
C662        C  0.45269914  0.10224425  0.54011116     0.11200
S663        S  0.55968952  0.13811757  0.48373471    -0.32100
S664        S  0.41270731  0.09022350  0.56431396    -0.32100
H665        H  0.38061151  0.14647242  0.03136990     0.29300
H666        H  0.59041611  0.15369007  0.51133205     0.29200
H667        H  0.46156210  0.11946111  0.95023781     0.19800
H668        H  0.51420101  0.09260795  0.58171790     0.19800
C669        C  0.18002451  0.07502974  0.98952236    -0.06000
C670        C  0.19650604  0.05937667  0.02053965    -0.17100
C671        C  0.16577425  0.03989177  0.03267374     0.11200
C672        C  0.11778880  0.03498167  0.01299290    -0.05900
C673        C  0.09981700  0.05343889  0.98406191    -0.17100
C674        C  0.13000248  0.07406259  0.97267092     0.11200
S675        S  0.19955290  0.02955565  0.58623089    -0.32100
S676        S  0.10259208  0.09763255  0.93604669    -0.32100
H677        H  0.13366116  0.12361429  0.94627142     0.29300
H678        H  0.15589863  0.02205925  0.59325988     0.29200
H679        H  0.23428793  0.06064538  0.03451442     0.19800
H680        H  0.06273397  0.05039570  0.96914614     0.19800
C681        C  0.88714441  0.02822026  0.55542032    -0.06000
C682        C  0.85163940  0.04050850  0.52793646    -0.17100
C683        C  0.81427862  0.05931130  0.53245831     0.11200
C684        C  0.81283010  0.06597321  0.56538842    -0.05900
C685        C  0.85127242  0.05590230  0.59255913    -0.17100
C686        C  0.88786266  0.03692130  0.58800176     0.11200
S687        S  0.77199700  0.08972908  0.98789051    -0.32100
S688        S  0.93094590  0.02163378  0.62510481    -0.32100
H689        H  0.96796184  0.01540503  0.61048291     0.29300
H690        H  0.79466652  0.08116374  0.96357567     0.29200
H691        H  0.84644245  0.04349554  0.99125949     0.19800
H692        H  0.85141053  0.06102520  0.61794003     0.19800
C693        C  0.74268303  0.68944656  0.64884358    -0.06000
C694        C  0.71127974  0.69199936  0.61637503    -0.17100
C695        C  0.69455803  0.72141373  0.60239730     0.11200
C696        C  0.71020756  0.74911289  0.62105250    -0.05900
C697        C  0.74091106  0.74639892  0.65364632    -0.17100
C698        C  0.75799089  0.71717333  0.66743566     0.11200
S699        S  0.65207607  0.72174266  0.56130530    -0.32100
S700        S  0.80207541  0.71737196  0.70789709    -0.32100
H701        H  0.83183067  0.69469107  0.69957953     0.29300
H702        H  0.62403117  0.74632320  0.56808810     0.29200
H703        H  0.69874111  0.67090741  0.60209213     0.19800
H704        H  0.75388725  0.76741429  0.66797252     0.19800
C705        C  0.67360424  0.93423655  0.62349645    -0.06000
C706        C  0.71711451  0.94943369  0.63958696    -0.17100
C707        C  0.71945132  0.98231848  0.64268411     0.11200
C708        C  0.67739403  0.00031137  0.62909698    -0.05900
C709        C  0.63317898  0.98473062  0.61625533    -0.17100
C710        C  0.63074385  0.95192978  0.61374573     0.11200
S711        S  0.77803440  0.99999064  0.65988550    -0.32100
S712        S  0.57239317  0.93409409  0.59594216    -0.32100
H713        H  0.58467518  0.90430021  0.61100023     0.29300
H714        H  0.76131416  0.02627713  0.67326703     0.29200
H715        H  0.75023471  0.93595649  0.64710294     0.19800
H716        H  0.60067844  0.99838978  0.60590245     0.19800
C717        C  0.89107514  0.91402956  0.54954922    -0.06000
C718        C  0.85610158  0.90338866  0.52107347    -0.17100
C719        C  0.81908578  0.88292796  0.52378610     0.11200
C720        C  0.81646755  0.87322850  0.55588495    -0.05900
C721        C  0.85482839  0.88117895  0.58395770    -0.17100
C722        C  0.89172092  0.90159732  0.58120725     0.11200
S723        S  0.75705938  0.87563280  0.97803247    -0.32100
S724        S  0.93467137  0.91413949  0.61950703    -0.32100
H725        H  0.97107407  0.92408242  0.60537971     0.29300
H726        H  0.76955396  0.84085977  0.49654650     0.29200
H727        H  0.83876261  0.91518625  0.98543237     0.19800
H728        H  0.85414029  0.87363871  0.60884740     0.19800
C729        C  0.22153793  0.69717107  0.87126773    -0.06000
C730        C  0.19230582  0.71120484  0.88870029    -0.17100
C731        C  0.19810731  0.74298894  0.89758827     0.11200
C732        C  0.23434111  0.76120371  0.88922096    -0.05900
C733        C  0.26320184  0.74725582  0.87150826    -0.17100
C734        C  0.25785890  0.71541321  0.86303012     0.11200
S735        S  0.15708333  0.75911574  0.91850599    -0.32100
S736        S  0.30078087  0.69904039  0.84388266    -0.32100
H737        H  0.30400053  0.66965838  0.86041453     0.29300
H738        H  0.15548471  0.78940722  0.90409098     0.29200
H739        H  0.16386316  0.69756110  0.89462124     0.19800
H740        H  0.29188706  0.76082250  0.86580042     0.19800
C741        C  0.28446951  0.94721027  0.88725568    -0.06000
C742        C  0.24104759  0.96389594  0.87695330    -0.17100
C743        C  0.24074488  0.99694597  0.87735857     0.11200
C744        C  0.28485421  0.01369918  0.88938110    -0.05900
C745        C  0.32819536  0.99696018  0.89519982    -0.17100
C746        C  0.32839508  0.96408244  0.89361357     0.11200
S747        S  0.18276151  0.01575771  0.86582771    -0.32100
S748        S  0.38597351  0.94488263  0.90165121    -0.32100
H749        H  0.36770031  0.91744948  0.88374068     0.29300
H750        H  0.19650196  0.03856641  0.84540137     0.29200
H751        H  0.20705901  0.95119738  0.87124926     0.19800
H752        H  0.36238260  0.00940248  0.90298714     0.19800
C753        C  0.11331616  0.92025006  0.00726104    -0.06000
C754        C  0.09464444  0.90545056  0.97643264    -0.17100
C755        C  0.12368251  0.88615127  0.96326241     0.11200
C756        C  0.17325542  0.88291311  0.98071191    -0.05900
C757        C  0.20524329  0.89845124  0.52367215    -0.17100
C758        C  0.17745872  0.91669510  0.53880584     0.11200
S759        S  0.09689694  0.86692699  0.92381912    -0.32100
S760        S  0.20628033  0.93185280  0.57992754    -0.32100
H761        H  0.16359310  0.93772629  0.58859403     0.29300
H762        H  0.04873450  0.87476355  0.92099023     0.29200
H763        H  0.05826626  0.91084120  0.96162572     0.19800
H764        H  0.24287327  0.89470090  0.53679057     0.19800
C765        C  0.43819810  0.83694039  0.48441195    -0.06000
C766        C  0.45220696  0.82669380  0.51792529    -0.17100
C767        C  0.50071432  0.82355568  0.53572624     0.11200
C768        C  0.53686168  0.83234989  0.52043452    -0.05900
C769        C  0.52315468  0.84106919  0.48649315    -0.17100
C770        C  0.47450339  0.84297155  0.46820716     0.11200
S771        S  0.51373006  0.80743703  0.57758338    -0.32100
S772        S  0.45323280  0.86768077  0.92284630    -0.32100
H773        H  0.43101649  0.84087305  0.90539437     0.29300
H774        H  0.55325161  0.78953248  0.57504871     0.29200
H775        H  0.42511773  0.82089620  0.53049186     0.19800
H776        H  0.55047296  0.84740653  0.47430130     0.19800
loop_ 
_geom_bond_atom_site_label_1 
_geom_bond_atom_site_label_2 
_geom_bond_distance 
_geom_bond_site_symmetry_2 
_ccdc_geom_bond_type 
O1            C4   1.269       .  A
O1           Cd6   2.475       .  S
C2           O11   1.263       .  A
C2            O7   1.271       .  A
C2          C353   1.481       .  S
O3            C9   1.269       .  A
O3           Cd6   2.473       .  S
C4           O12   1.262       .  A
C4          C344   1.476       .  S
C5            O8   1.264       .  A
C5          O398   1.269       .  A
C5          C765   1.485       .  S
Cd6          O13   2.421       .  S
Cd6          O12   2.438       .  S
Cd6          O11   2.411       .  S
Cd6           O7   2.516       .  S
Cd6           O8   2.439       .  S
Cd6         O398   2.454       .  S
C9           O13   1.265       .  A
C9          C368   1.482       .  S
O10         C393   1.270       .  A
O10        Cd394   2.455       .  S
O14          C17   1.270       .  A
O14         Cd19   2.482       .  S
C15          O24   1.269       .  A
C15          O20   1.263       .  A
C15         C317   1.480       .  S
O16          C22   1.268       .  A
O16         Cd19   2.481       .  S
C17          O25   1.264       .  A
C17         C308   1.480       .  S
C18          O23   1.270       .  A
C18          O21   1.266       .  A
C18         C380   1.478       .  S
Cd19         O26   2.422       .  S
Cd19         O25   2.426       .  S
Cd19         O24   2.507       .  S
Cd19         O20   2.437       .  S
Cd19         O23   2.464       .  S
Cd19         O21   2.424       .  S
C22          O26   1.264       .  A
C22         C332   1.486       .  S
C27         C365   1.483       .  S
C27          C28   1.396       .  A
C27         C420   1.413       .  A
C28          C29   1.396   1_565  A
C28          H47   1.087       .  S
C29         C284   1.483       .  S
C29         C418   1.412       .  A
C30          C31   1.423   1_545  A
C30          C37   1.405       .  A
C30         C417   1.414       .  A
C31          C32   1.420       .  A
C31          C36   1.417   1_455  A
C32          C33   1.407       .  A
C32         C415   1.412       .  A
C33          C34   1.394   1_455  A
C33          H43   1.082       .  S
C34          C35   1.404       .  A
C34          H44   1.084       .  S
C35          C36   1.421       .  A
C35          C42   1.412       .  A
C36          C39   1.419   1_565  A
C37          C38   1.392   1_455  A
C37         H433   1.082       .  S
C38          C39   1.404       .  A
C38          H46   1.083       .  S
C39          C40   1.410       .  A
C40         C293   1.475       .  S
C40          C41   1.393   1_545  A
C41          C42   1.394       .  A
C41          H48   1.088       .  S
C42         C329   1.477       .  S
H45         C425   1.080       .  S
O49          C52   1.267       .  A
O49         Cd54   2.479       .  S
C50          O59   1.264       .  A
C50          O55   1.264       .  A
C50         C356   1.492       .  S
O51          C57   1.267       .  A
O51         Cd54   2.455       .  S
C52          O60   1.263       .  A
C52         C260   1.482       .  S
C53          O58   1.268       .  A
C53          O56   1.265       .  A
C53         C281   1.487       .  S
Cd54         O61   2.447       .  S
Cd54         O60   2.441       .  S
Cd54         O59   2.485       .  S
Cd54         O55   2.485       .  S
Cd54         O58   2.481       .  S
Cd54         O56   2.455       .  S
C57          O61   1.265       .  A
C57         C269   1.483       .  S
O62          C65   1.272       .  A
O62         Cd67   2.476       .  S
C63          O72   1.263       .  A
C63          O68   1.271       .  A
C63         C320   1.482       .  S
O64          C70   1.269       .  A
O64         Cd67   2.435       .  S
C65          O73   1.264       .  A
C65         C245   1.487       .  S
C66          O71   1.269       .  A
C66          O69   1.265       .  A
C66         C296   1.485       .  S
Cd67         O74   2.439       .  S
Cd67         O73   2.423       .  S
Cd67         O72   2.415       .  S
Cd67         O68   2.517       .  S
Cd67         O71   2.484       .  S
Cd67         O69   2.419       .  S
C70          O74   1.269       .  A
C70         C272   1.488       .  S
O75          C78   1.270       .  A
O75         Cd80   2.481       .  S
C76          O85   1.264       .  A
C76          O81   1.269       .  A
C76         C209   1.473       .  S
O77          C83   1.272       .  A
O77         Cd80   2.477       .  S
C78          O86   1.264       .  A
C78         C341   1.472       .  S
C79          O84   1.270       .  A
C79          O82   1.264       .  A
C79         C221   1.480       .  S
Cd80         O87   2.407       .  S
Cd80         O86   2.403       .  S
Cd80         O85   2.416       .  S
Cd80         O81   2.494       .  S
Cd80         O84   2.482       .  S
Cd80         O82   2.412       .  S
C83          O87   1.265       .  A
C83         C236   1.482       .  S
O88          C91   1.270       .  A
O88         Cd93   2.483       .  S
C89          O98   1.262       .  A
C89          O94   1.269       .  A
C89         C185   1.482       .  S
O90          C96   1.270       .  A
O90         Cd93   2.442       .  S
C91          O99   1.261       .  A
C91         C305   1.483       .  S
C92          O97   1.267       .  A
C92          O95   1.264       .  A
C92         C197   1.479       .  S
Cd93        O100   2.419       .  S
Cd93         O99   2.434       .  S
Cd93         O98   2.432       .  S
Cd93         O94   2.508       .  S
Cd93         O97   2.471       .  S
Cd93         O95   2.432       .  S
C96         O100   1.265       .  A
C96         C233   1.483       .  S
C101        C164   1.476       .  S
C101        C102   1.395       .  A
C101        C106   1.410       .  A
C102        C103   1.394       .  A
C102        H121   1.086       .  S
C103        C224   1.477       .  S
C103        C104   1.411       .  A
C104        C105   1.421       .  A
C104        C111   1.403       .  A
C105        C106   1.418       .  A
C105        C110   1.416       .  A
C106        C107   1.406       .  A
C107        C108   1.391       .  A
C107        H117   1.082       .  S
C108        C109   1.403       .  A
C108        H118   1.083       .  S
C109        C110   1.421       .  A
C109        C116   1.411       .  A
C110        C113   1.418       .  A
C111        C112   1.393       .  A
C111        H119   1.082       .  S
C112        C113   1.406       .  A
C112        H120   1.082       .  S
C113        C114   1.411       .  A
C114        C200   1.480       .  S
C114        C115   1.398       .  A
C115        C116   1.394       .  A
C115        H122   1.086       .  S
C116        C176   1.479       .  S
O123        C126   1.267       .  A
O123       Cd128   2.499       .  S
C124        O133   1.264       .  A
C124        O129   1.268       .  A
C124        C257   1.479       .  S
O125        C131   1.268       .  A
O125       Cd128   2.454       .  S
C126        O134   1.264       .  A
C126        C212   1.478       .  S
C127        O132   1.268       .  A
C127        O130   1.263       .  A
C127        C161   1.473       .  S
Cd128       O135   2.430       .  S
Cd128       O134   2.434       .  S
Cd128       O133   2.432       .  S
Cd128       O129   2.463       .  S
Cd128       O132   2.475       .  S
Cd128       O130   2.396       .  S
C131        O135   1.266       .  A
C131        C149   1.481       .  S
O136        C139   1.270       .  A
O136       Cd141   2.460       .  S
C137        O146   1.262       .  A
C137        O142   1.269       .  A
C137        C188   1.477       .  S
O138        C144   1.268       .  A
O138       Cd141   2.486       .  S
C139        O147   1.265       .  A
C139        C248   1.482       .  S
C140        O145   1.270       .  A
C140        O143   1.266       .  A
C140        C152   1.479       .  S
Cd141       O148   2.421       .  S
Cd141       O147   2.432       .  S
Cd141       O146   2.430       .  S
Cd141       O142   2.496       .  S
Cd141       O145   2.444       .  S
Cd141       O143   2.439       .  S
C144        O148   1.263       .  A
C144        C173   1.484       .  S
C149        C150   1.404       .  A
C149        C154   1.415       .  A
C150        C151   1.398   1_455  A
C150        H159   1.084       .  S
C151        C152   1.416       .  A
C151        S155   1.803       .  S
C152        C153   1.403       .  A
C153        C154   1.397   1_655  A
C153        H160   1.084       .  S
C154        S156   1.803       .  S
S155        H158   1.408       .  S
S156        H157   1.408       .  S
C161        C162   1.404       .  A
C161        C166   1.415       .  A
C162        C163   1.397       .  A
C162        H171   1.084       .  S
C163        C164   1.411       .  A
C163        S167   1.804       .  S
C164        C165   1.400       .  A
C165        C166   1.393       .  A
C165        H172   1.085       .  S
C166        S168   1.804       .  S
S167        H170   1.407       .  S
S168        H169   1.408       .  S
C173        C174   1.406       .  A
C173        C178   1.415       .  A
C174        C175   1.395       .  A
C174        H183   1.088       .  S
C175        C176   1.410       .  A
C175        S179   1.806       .  S
C176        C177   1.403       .  A
C177        C178   1.401       .  A
C177        H184   1.090       .  S
C178        S180   1.802       .  S
S179        H182   1.404       .  S
S180        H181   1.408       .  S
C185        C186   1.404       .  A
C185        C190   1.415       .  A
C186        C187   1.401       .  A
C186        H195   1.084       .  S
C187        C188   1.412       .  A
C187        S191   1.800       .  S
C188        C189   1.404       .  A
C189        C190   1.400       .  A
C189        H196   1.083       .  S
C190        S192   1.804       .  S
S191        H194   1.406       .  S
S192        H193   1.408       .  S
C197        C198   1.404       .  A
C197        C202   1.415       .  A
C198        C199   1.397       .  A
C198        H207   1.084       .  S
C199        C200   1.411       .  A
C199        S203   1.804       .  S
C200        C201   1.402       .  A
C201        C202   1.397       .  A
C201        H208   1.084       .  S
C202        S204   1.803       .  S
S203        H206   1.407       .  S
S204        H205   1.408       .  S
C209        C210   1.403       .  A
C209        C214   1.410       .  A
C210        C211   1.403       .  A
C210        H219   1.083       .  S
C211        C212   1.414       .  A
C211        S215   1.800       .  S
C212        C213   1.403       .  A
C213        C214   1.398       .  A
C213        H220   1.084       .  S
C214        S216   1.804       .  S
S215        H218   1.406       .  S
S216        H217   1.407       .  S
C221        C222   1.405       .  A
C221        C226   1.414       .  A
C222        C223   1.394       .  A
C222        H231   1.089       .  S
C223        C224   1.409       .  A
C223        S227   1.804       .  S
C224        C225   1.402       .  A
C225        C226   1.401       .  A
C225        H232   1.089       .  S
C226        S228   1.801       .  S
S227        H230   1.405       .  S
S228        H229   1.408       .  S
C233        C234   1.403       .  A
C233        C238   1.419       .  A
C234        C235   1.395   1_655  A
C234        H243   1.084       .  S
C235        C236   1.416       .  A
C235        S239   1.803       .  S
C236        C237   1.403       .  A
C237        C238   1.400   1_455  A
C237        H244   1.084       .  S
C238        S240   1.801       .  S
S239        H242   1.408       .  S
S240        H241   1.408       .  S
C245        C246   1.404       .  A
C245        C250   1.420       .  A
C246        C247   1.399       .  A
C246        H255   1.083       .  S
C247        C248   1.417       .  A
C247        S251   1.803       .  S
C248        C249   1.402       .  A
C249        C250   1.398       .  A
C249        H256   1.083       .  S
C250        S252   1.802       .  S
S251        H254   1.408       .  S
S252        H253   1.408       .  S
C257        C258   1.406       .  A
C257        C262   1.413       .  A
C258        C259   1.399       .  A
C258        H267   1.082       .  S
C259        C260   1.414       .  A
C259        S263   1.802       .  S
C260        C261   1.406       .  A
C261        C262   1.398       .  A
C261        H268   1.082       .  S
C262        S264   1.802       .  S
S263        H266   1.407       .  S
S264        H265   1.408       .  S
C269        C270   1.406       .  A
C269        C662   1.415       .  A
C270        C659   1.399       .  A
C270        H279   1.084       .  S
C271        C272   1.418   1_556  A
C271        C658   1.400       .  A
C271        S275   1.802       .  S
C272        C273   1.408       .  A
C273        C274   1.399       .  A
C273        H280   1.084       .  S
C274        C657   1.412   1_554  A
C274        S276   1.803       .  S
S275        H278   1.408       .  S
S276        H665   1.408       .  S
H277        S664   1.408       .  S
C281        C282   1.406       .  A
C281        C286   1.417       .  A
C282        C283   1.399       .  A
C282        H291   1.083       .  S
C283        C284   1.411       .  A
C283        S675   1.804       .  S
C284        C285   1.402       .  A
C285        C286   1.400       .  A
C285        H292   1.084       .  S
C286        S288   1.802       .  S
S287        C671   1.803       .  S
S287        H290   1.407       .  S
S288        H289   1.408       .  S
C293        C294   1.402       .  A
C293        C298   1.408       .  A
C294        C295   1.405       .  A
C294        H691   1.082   1_554  S
C295        C296   1.416       .  A
C295        S687   1.806   1_554  S
C296        C297   1.407       .  A
C297        C298   1.393       .  A
C297        H304   1.082       .  S
C298        S300   1.806       .  S
S299        C683   1.808       .  S
S299        H302   1.407       .  S
S300        H301   1.403       .  S
H303        C682   1.078       .  S
C305        C306   1.403       .  A
C305        C310   1.419       .  A
C306        C307   1.398       .  A
C306        H315   1.084       .  S
C307        C308   1.416       .  A
C307        S311   1.803       .  S
C308        C309   1.402       .  A
C309        C310   1.400       .  A
C309        H316   1.084       .  S
C310        S312   1.803       .  S
S311        H314   1.407       .  S
S312        H313   1.408       .  S
C317        C318   1.404       .  A
C317        C322   1.413       .  A
C318        C319   1.404       .  A
C318        H327   1.085       .  S
C319        C320   1.414   1_565  A
C319        S323   1.799   1_565  S
C320        C321   1.405   1_545  A
C321        C322   1.399       .  A
C321        H328   1.086   1_565  S
C322        S324   1.805       .  S
S323        H326   1.406       .  S
S324        H325   1.407       .  S
C329        C330   1.401       .  A
C329        C334   1.409       .  A
C330        C331   1.401       .  A
C330        H727   1.086   1_554  S
C331        C332   1.418       .  A
C331        S723   1.801   1_554  S
C332        C333   1.407       .  A
C333        C334   1.394       .  A
C333        H340   1.088       .  S
C334        S336   1.805       .  S
S335        C719   1.801       .  S
S335        H726   1.407       .  S
S336        H337   1.404       .  S
H338        S723   1.407       .  S
H339        C718   1.089       .  S
C341        C342   1.402       .  A
C341        C346   1.413       .  A
C342        C343   1.401       .  A
C342        H351   1.084       .  S
C343        C344   1.416       .  A
C343        S347   1.803       .  S
C344        C345   1.401       .  A
C345        C346   1.396       .  A
C345        H352   1.084       .  S
C346        S348   1.805       .  S
S347        H350   1.407       .  S
S348        H349   1.408       .  S
C353        C354   1.403       .  A
C353        C358   1.413       .  A
C354        C355   1.405       .  A
C354        H363   1.084       .  S
C355        C356   1.418   1_565  A
C355        S359   1.801   1_565  S
C356        C357   1.407   1_545  A
C357        C358   1.399       .  A
C357        H364   1.084   1_565  S
C358        S360   1.805       .  S
S359        H362   1.408       .  S
S360        H361   1.408       .  S
C365        C366   1.401       .  A
C365        C758   1.412       .  A
C366        C367   1.400       .  A
C366        H375   1.081       .  S
C367        C368   1.417       .  A
C367        S371   1.809       .  S
C368        C757   1.405       .  A
C369        C370   1.397       .  A
C369        C756   1.405   1_554  A
C369        H376   1.082       .  S
C370        C753   1.411       .  A
C370        S372   1.804       .  S
S371        H374   1.407       .  S
S372        H373   1.407       .  S
C377        C393   1.481       .  S
C377        C378   1.403   1_556  A
C377        C382   1.417       .  A
C378        C379   1.397       .  A
C378        H387   1.083       .  S
C379        C380   1.413       .  A
C379        S383   1.802       .  S
C380        C381   1.403   1_554  A
C381        C382   1.399       .  A
C381        H388   1.083       .  S
C382        S772   1.800       .  S
S383        H386   1.408       .  S
S384        C770   1.801       .  S
S384        H385   1.408       .  S
O389        C392   1.269       .  A
O389       Cd394   2.472       .  S
C390        O399   1.262       .  A
C390        O395   1.269       .  A
C390        C741   1.478       .  S
O391        C397   1.270       .  A
O391       Cd394   2.481       .  S
C392        O400   1.263       .  A
C392        C732   1.473       .  S
C393        O396   1.265       .  A
Cd394       O401   2.417       .  S
Cd394       O400   2.430       .  S
Cd394       O399   2.419       .  S
Cd394       O395   2.506       .  S
Cd394       O396   2.434       .  S
C397        O401   1.263       .  A
C397        C756   1.485       .  S
O402        C405   1.270       .  A
O402       Cd407   2.450       .  S
C403        O412   1.269       .  A
C403        O408   1.264       .  A
C403        C705   1.472       .  S
O404        C410   1.268       .  A
O404       Cd407   2.474       .  S
C405        O413   1.265       .  A
C405        C696   1.478       .  S
C406        O411   1.271       .  A
C406        O409   1.265       .  A
C406        C768   1.479       .  S
Cd407       O414   2.435       .  S
Cd407       O413   2.438       .  S
Cd407       O412   2.495       .  S
Cd407       O408   2.421       .  S
Cd407       O411   2.473       .  S
Cd407       O409   2.399       .  S
C410        O414   1.264       .  A
C410        C720   1.487       .  S
C415        C753   1.482       .  S
C415        C416   1.396       .  A
C416        C417   1.396   1_565  A
C416        H435   1.086       .  S
C417        C672   1.487       .  S
C418        C419   1.421   1_545  A
C418        C425   1.405       .  A
C419        C420   1.420       .  A
C419        C424   1.417   1_455  A
C420        C421   1.406       .  A
C421        C422   1.393   1_455  A
C421        H431   1.084       .  S
C422        C423   1.404       .  A
C422        H432   1.083       .  S
C423        C424   1.421       .  A
C423        C430   1.411       .  A
C424        C427   1.419   1_565  A
C425        C426   1.393   1_455  A
C426        C427   1.405       .  A
C426        H434   1.085       .  S
C427        C428   1.411       .  A
C428        C681   1.475       .  S
C428        C429   1.393   1_545  A
C429        C430   1.393       .  A
C429        H436   1.087       .  S
C430        C717   1.477       .  S
O437        C440   1.268       .  A
O437       Cd442   2.466       .  S
C438        O447   1.264       .  A
C438        O443   1.264       .  A
C438        C744   1.488       .  S
O439        C445   1.269       .  A
O439       Cd442   2.462       .  S
C440        O448   1.264       .  A
C440        C648   1.477       .  S
C441        O446   1.268       .  A
C441        O444   1.263       .  A
C441        C669   1.487       .  S
Cd442       O449   2.458       .  S
Cd442       O448   2.434       .  S
Cd442       O447   2.460       .  S
Cd442       O443   2.492       .  S
Cd442       O446   2.491       .  S
Cd442       O444   2.451       .  S
C445        O449   1.266       .  A
C445        C657   1.481       .  S
O450        C453   1.271       .  A
O450       Cd455   2.456       .  S
C451        O460   1.264       .  A
C451        O456   1.271       .  A
C451        C708   1.471       .  S
O452        C458   1.269       .  A
O452       Cd455   2.461       .  S
C453        O461   1.265       .  A
C453        C633   1.476       .  S
C454        O459   1.271       .  A
C454        O457   1.266       .  A
C454        C684   1.486       .  S
Cd455       O462   2.440       .  S
Cd455       O461   2.423       .  S
Cd455       O460   2.396       .  S
Cd455       O456   2.501       .  S
Cd455       O459   2.473       .  S
Cd455       O457   2.386       .  S
C458        O462   1.266       .  A
C458        C660   1.482       .  S
O463        C466   1.270       .  A
O463       Cd468   2.476       .  S
C464        O473   1.262       .  A
C464        O469   1.271       .  A
C464        C597   1.476       .  S
O465        C471   1.271       .  A
O465       Cd468   2.467       .  S
C466        O474   1.264       .  A
C466        C729   1.475       .  S
C467        O472   1.269       .  A
C467        O470   1.266       .  A
C467        C609   1.482       .  S
Cd468       O475   2.417       .  S
Cd468       O474   2.424       .  S
Cd468       O473   2.397       .  S
Cd468       O469   2.519       .  S
Cd468       O472   2.461       .  S
Cd468       O470   2.425       .  S
C471        O475   1.265       .  A
C471        C624   1.482       .  S
O476        C479   1.269       .  A
O476       Cd481   2.486       .  S
C477        O486   1.263       .  A
C477        O482   1.268       .  A
C477        C573   1.481       .  S
O478        C484   1.268       .  A
O478       Cd481   2.455       .  S
C479        O487   1.262       .  A
C479        C693   1.477       .  S
C480        O485   1.267       .  A
C480        O483   1.264       .  A
C480        C585   1.478       .  S
Cd481       O488   2.449       .  S
Cd481       O487   2.415       .  S
Cd481       O486   2.440       .  S
Cd481       O482   2.506       .  S
Cd481       O485   2.475       .  S
Cd481       O483   2.429       .  S
C484        O488   1.266       .  A
C484        C621   1.482       .  S
C489        C552   1.481       .  S
C489        C490   1.396       .  A
C489        C494   1.413       .  A
C490        C491   1.393       .  A
C490        H509   1.087       .  S
C491        C612   1.475       .  S
C491        C492   1.409       .  A
C492        C493   1.419       .  A
C492        C499   1.404       .  A
C493        C494   1.420       .  A
C493        C498   1.416       .  A
C494        C495   1.405       .  A
C495        C496   1.392       .  A
C495        H505   1.082       .  S
C496        C497   1.405       .  A
C496        H506   1.082       .  S
C497        C498   1.418       .  A
C497        C504   1.410       .  A
C498        C501   1.419       .  A
C499        C500   1.392       .  A
C499        H507   1.082       .  S
C500        C501   1.405       .  A
C500        H508   1.082       .  S
C501        C502   1.412       .  A
C502        C588   1.483       .  S
C502        C503   1.399       .  A
C503        C504   1.395       .  A
C503        H510   1.086       .  S
C504        C564   1.476       .  S
O511        C514   1.267       .  A
O511       Cd516   2.506       .  S
C512        O521   1.264       .  A
C512        O517   1.268       .  A
C512        C645   1.477       .  S
O513        C519   1.269       .  A
O513       Cd516   2.453       .  S
C514        O522   1.264       .  A
C514        C600   1.483       .  S
C515        O520   1.268       .  A
C515        O518   1.264       .  A
C515        C549   1.483       .  S
Cd516       O523   2.428       .  S
Cd516       O522   2.430       .  S
Cd516       O521   2.434       .  S
Cd516       O517   2.461       .  S
Cd516       O520   2.477       .  S
Cd516       O518   2.429       .  S
C519        O523   1.265       .  A
C519        C537   1.480       .  S
O524        C527   1.270       .  A
O524       Cd529   2.460       .  S
C525        O534   1.261       .  A
C525        O530   1.268       .  A
C525        C576   1.485       .  S
O526        C532   1.268       .  A
O526       Cd529   2.468       .  S
C527        O535   1.264       .  A
C527        C636   1.471       .  S
C528        O533   1.271       .  A
C528        O531   1.267       .  A
C528        C540   1.475       .  S
Cd529       O536   2.419       .  S
Cd529       O535   2.422       .  S
Cd529       O534   2.406       .  S
Cd529       O530   2.521       .  S
Cd529       O533   2.447       .  S
Cd529       O531   2.428       .  S
C532        O536   1.264       .  A
C532        C561   1.479       .  S
C537        C538   1.403       .  A
C537        C542   1.416       .  A
C538        C539   1.397   1_455  A
C538        H547   1.084       .  S
C539        C540   1.415       .  A
C539        S543   1.803       .  S
C540        C541   1.402       .  A
C541        C542   1.398   1_655  A
C541        H548   1.084       .  S
C542        S544   1.803       .  S
S543        H546   1.406       .  S
S544        H545   1.408       .  S
C549        C550   1.406       .  A
C549        C554   1.417       .  A
C550        C551   1.398       .  A
C550        H559   1.084       .  S
C551        C552   1.411       .  A
C551        S555   1.803       .  S
C552        C553   1.401       .  A
C553        C554   1.397       .  A
C553        H560   1.085       .  S
C554        S556   1.802       .  S
S555        H558   1.407       .  S
S556        H557   1.408       .  S
C561        C562   1.405       .  A
C561        C566   1.414       .  A
C562        C563   1.393       .  A
C562        H571   1.088       .  S
C563        C564   1.411       .  A
C563        S567   1.807       .  S
C564        C565   1.401       .  A
C565        C566   1.400       .  A
C565        H572   1.090       .  S
C566        S568   1.801       .  S
S567        H570   1.404       .  S
S568        H569   1.407       .  S
C573        C574   1.405       .  A
C573        C578   1.412       .  A
C574        C575   1.405       .  A
C574        H583   1.083       .  S
C575        C576   1.416       .  A
C575        S579   1.800       .  S
C576        C577   1.405       .  A
C577        C578   1.397       .  A
C577        H584   1.083       .  S
C578        S580   1.804       .  S
S579        H582   1.407       .  S
S580        H581   1.407       .  S
C585        C586   1.405       .  A
C585        C590   1.414       .  A
C586        C587   1.399       .  A
C586        H595   1.084       .  S
C587        C588   1.411       .  A
C587        S591   1.802       .  S
C588        C589   1.402       .  A
C589        C590   1.395       .  A
C589        H596   1.084       .  S
C590        S592   1.803       .  S
S591        H594   1.407       .  S
S592        H593   1.408       .  S
C597        C598   1.403       .  A
C597        C602   1.411       .  A
C598        C599   1.405       .  A
C598        H607   1.083       .  S
C599        C600   1.416       .  A
C599        S603   1.799       .  S
C600        C601   1.404       .  A
C601        C602   1.396       .  A
C601        H608   1.084       .  S
C602        S604   1.805       .  S
S603        H606   1.407       .  S
S604        H605   1.408       .  S
C609        C610   1.406       .  A
C609        C614   1.415       .  A
C610        C611   1.395       .  A
C610        H619   1.088       .  S
C611        C612   1.410       .  A
C611        S615   1.806       .  S
C612        C613   1.401       .  A
C613        C614   1.399       .  A
C613        H620   1.088       .  S
C614        S616   1.801       .  S
S615        H618   1.405       .  S
S616        H617   1.408       .  S
C621        C622   1.403       .  A
C621        C626   1.415       .  A
C622        C623   1.399   1_655  A
C622        H631   1.084       .  S
C623        C624   1.417       .  A
C623        S627   1.804       .  S
C624        C625   1.404       .  A
C625        C626   1.399   1_455  A
C625        H632   1.084       .  S
C626        S628   1.800       .  S
S627        H630   1.408       .  S
S628        H629   1.407       .  S
C633        C634   1.402       .  A
C633        C638   1.416       .  A
C634        C635   1.397       .  A
C634        H643   1.084       .  S
C635        C636   1.414       .  A
C635        S639   1.804       .  S
C636        C637   1.401       .  A
C637        C638   1.398       .  A
C637        H644   1.084       .  S
C638        S640   1.803       .  S
S639        H642   1.407       .  S
S640        H641   1.407       .  S
C645        C646   1.406       .  A
C645        C650   1.412       .  A
C646        C647   1.399       .  A
C646        H655   1.082       .  S
C647        C648   1.413       .  A
C647        S651   1.803       .  S
C648        C649   1.405       .  A
C649        C650   1.397       .  A
C649        H656   1.082       .  S
C650        S652   1.802       .  S
S651        H654   1.407       .  S
S652        H653   1.408       .  S
C657        C658   1.404       .  A
C658        H667   1.085       .  S
C659        C660   1.413       .  A
C659        S663   1.802       .  S
C660        C661   1.406       .  A
C661        C662   1.399       .  A
C661        H668   1.084       .  S
C662        S664   1.803       .  S
S663        H666   1.407       .  S
C669        C670   1.405   1_556  A
C669        C674   1.418       .  A
C670        C671   1.399       .  A
C670        H679   1.084       .  S
C671        C672   1.413       .  A
C672        C673   1.402   1_554  A
C673        C674   1.400       .  A
C673        H680   1.084       .  S
C674        S676   1.802       .  S
S675        H678   1.407       .  S
S676        H677   1.408       .  S
C681        C682   1.402       .  A
C681        C686   1.407       .  A
C682        C683   1.406       .  A
C683        C684   1.418       .  A
C684        C685   1.409       .  A
C685        C686   1.393       .  A
C685        H692   1.082       .  S
C686        S688   1.806       .  S
S687        H690   1.407       .  S
S688        H689   1.402       .  S
C693        C694   1.404       .  A
C693        C698   1.415       .  A
C694        C695   1.401       .  A
C694        H703   1.083       .  S
C695        C696   1.417       .  A
C695        S699   1.803       .  S
C696        C697   1.401       .  A
C697        C698   1.394       .  A
C697        H704   1.084       .  S
C698        S700   1.804       .  S
S699        H702   1.407       .  S
S700        H701   1.408       .  S
C705        C706   1.403       .  A
C705        C710   1.411       .  A
C706        C707   1.403       .  A
C706        H715   1.086       .  S
C707        C708   1.414   1_565  A
C707        S711   1.802       .  S
C708        C709   1.402   1_545  A
C709        C710   1.397       .  A
C709        H716   1.086       .  S
C710        S712   1.803       .  S
S711        H714   1.404   1_565  S
S712        H713   1.407       .  S
C717        C718   1.401       .  A
C717        C722   1.410       .  A
C718        C719   1.400       .  A
C719        C720   1.417       .  A
C720        C721   1.408       .  A
C721        C722   1.397       .  A
C721        H728   1.087       .  S
C722        S724   1.806       .  S
S724        H725   1.403       .  S
C729        C730   1.403       .  A
C729        C734   1.415       .  A
C730        C731   1.400       .  A
C730        H739   1.084       .  S
C731        C732   1.414       .  A
C731        S735   1.804       .  S
C732        C733   1.401       .  A
C733        C734   1.398       .  A
C733        H740   1.084       .  S
C734        S736   1.804       .  S
S735        H738   1.407       .  S
S736        H737   1.407       .  S
C741        C742   1.402       .  A
C741        C746   1.412       .  A
C742        C743   1.403       .  A
C742        H751   1.083       .  S
C743        C744   1.419   1_565  A
C743        S747   1.800   1_565  S
C744        C745   1.405   1_545  A
C745        C746   1.398       .  A
C745        H752   1.084   1_565  S
C746        S748   1.803       .  S
S747        H750   1.407       .  S
S748        H749   1.407       .  S
C753        C754   1.400   1_554  A
C754        C755   1.402       .  A
C754        H763   1.083       .  S
C755        C756   1.419       .  A
C755        S759   1.809       .  S
C757        C758   1.399       .  A
C757        H764   1.083       .  S
C758        S760   1.805       .  S
S759        H762   1.407       .  S
S760        H761   1.406       .  S
C765        C766   1.404       .  A
C765        C770   1.420       .  A
C766        C767   1.396       .  A
C766        H775   1.083       .  S
C767        C768   1.415       .  A
C767        S771   1.804       .  S
C768        C769   1.402       .  A
C769        C770   1.400       .  A
C769        H776   1.083       .  S
S771        H774   1.408       .  S
S772        H773   1.407       .  S
