geometry optimzed in LAMMPS
_audit_creation_date              2020-11-30 
_audit_creation_method            'lammps2cif' 
_symmetry_space_group_name_H-M    'P1' 
_symmetry_Int_Tables_number       1 
_symmetry_cell_setting            triclinic 
loop_ 
_symmetry_equiv_pos_as_xyz 
  x,y,z 
_cell_length_a                    24.8109532 
_cell_length_b                    25.391291561640415 
_cell_length_c                    34.4880253648586 
_cell_angle_alpha                 89.53373387821034 
_cell_angle_beta                  90.02677216856729 
_cell_angle_gamma                 93.56040249215492 
loop_ 
_atom_site_label 
_atom_site_type_symbol 
_atom_site_fract_x 
_atom_site_fract_y 
_atom_site_fract_z 
_atom_site_charge 
O1          O  0.38721611  0.45559653  0.01696476    -0.79400
O2          O  0.12076745  0.05637076  0.02566373    -0.79400
O3          O  0.04262637  0.43052507  0.05772125    -0.79400
O4          O  0.45160122  0.12483382  0.02908087    -0.79300
O5          O  0.10647596  0.45229534  0.01661428    -0.79500
O6          O  0.41298674  0.04351557  0.03246430    -0.79400
O7          O  0.04618688  0.05468958  0.06087720    -0.79400
O8          O  0.45145998  0.44725905  0.05899366    -0.79400
C9          C  0.40316319  0.43794362  0.04938040     1.10300
C10         C  0.09582965  0.06750403  0.05705000     1.10200
C11         C  0.09115728  0.42925837  0.04743621     1.10300
C12         C  0.41565179  0.09196344  0.04332682     1.10200
O13         O  0.42715786  0.06124244  0.28102439    -0.79400
O14         O  0.07800045  0.44840527  0.28910005    -0.79400
O15         O  0.43221826  0.39893090  0.31297486    -0.79400
O16         O  0.05295941  0.11043491  0.31904375    -0.79400
O17         O  0.06962061  0.05023669  0.27742501    -0.79400
O18         O  0.43243590  0.47426902  0.28098591    -0.79400
O19         O  0.45640050  0.12597593  0.31958083    -0.79300
O20         O  0.02827321  0.37411322  0.29886314    -0.79400
Co21       Co  0.43156070  0.51019357  0.98487473     1.51500
Co22       Co  0.09266120  0.00000373  0.31600440     1.51700
Co23       Co  0.50517319  0.42534049  0.02209237     1.51600
Co24       Co  0.51059488  0.09377804  0.35380806     1.51500
O25         O  0.50968097  0.49907815  0.99852038    -1.41300
C26         C  0.43546186  0.11000009  0.28796842     1.10200
C27         C  0.06800575  0.39846968  0.28296103     1.10300
C28         C  0.41923688  0.42571331  0.28310365     1.10300
C29         C  0.07497277  0.09745979  0.28723942     1.10200
O30         O  0.30849570  0.28667535  0.22754433    -0.79400
O31         O  0.18396111  0.20182782  0.22073063    -0.79400
O32         O  0.19783580  0.37333656  0.18538836    -0.79400
O33         O  0.30150900  0.17457786  0.20353259    -0.79300
O34         O  0.17314228  0.30509551  0.22256152    -0.79500
O35         O  0.38037622  0.21911791  0.19865694    -0.79400
O36         O  0.20259418  0.14213028  0.17939676    -0.79400
O37         O  0.30552046  0.36205579  0.19529355    -0.79400
C38         C  0.31769981  0.33599651  0.22587594     1.10300
C39         C  0.17932032  0.15465972  0.21081791     1.10200
C40         C  0.17520324  0.35403734  0.21545513     1.10300
C41         C  0.35184500  0.18016562  0.21241442     1.10200
O42         O  0.33525270  0.21715588  0.12616028    -0.79400
O43         O  0.13088001  0.30426502  0.14572139    -0.79400
O44         O  0.30527640  0.32416099  0.11312347    -0.79400
O45         O  0.21921781  0.19975366  0.10549236    -0.79400
O46         O  0.14381193  0.19691332  0.13928476    -0.79400
O47         O  0.36628091  0.31117447  0.15569759    -0.79400
O48         O  0.29762784  0.13607596  0.13003313    -0.79300
O49         O  0.19921698  0.33363294  0.10890716    -0.79400
Co50       Co  0.31766790  0.25061864  0.17849050     1.51500
Co51       Co  0.16261550  0.25231794  0.18171199     1.51700
Co52       Co  0.25206671  0.34350890  0.15086279     1.51600
Co53       Co  0.26078795  0.19245277  0.15328304     1.51700
O54         O  0.24087015  0.26629861  0.16633886    -1.41300
C55         C  0.33281552  0.16899232  0.11505791     1.10200
C56         C  0.14928831  0.32949808  0.11625797     1.10300
C57         C  0.35278720  0.33277361  0.12413551     1.10300
C58         C  0.16994715  0.18541090  0.10865597     1.10200
C59         C  0.14613618  0.14964957  0.07843244    -0.15700
C60         C  0.12124101  0.10231707  0.08722337    -0.30800
H61         H  0.15409078  0.15989769  0.04819781     0.13400
H62         H  0.11322255  0.09220018  0.11746934     0.13900
C63         C  0.14298119  0.11746158  0.23418923    -0.15700
C64         C  0.11104089  0.13437777  0.26349111    -0.30800
H65         H  0.14133312  0.07598313  0.22663172     0.13400
H66         H  0.11279201  0.17585898  0.27105113     0.13900
C67         C  0.12908174  0.39845182  0.06928215    -0.15700
C68         C  0.11165920  0.35835526  0.09255333    -0.30800
H69         H  0.17199567  0.40754366  0.06495374     0.13400
H70         H  0.06867625  0.34919773  0.09651585     0.13900
C71         C  0.37079746  0.15534635  0.08434993    -0.15700
C72         C  0.37683738  0.10593769  0.07338207    -0.30800
H73         H  0.39596520  0.18726222  0.07124749     0.13400
H74         H  0.35163327  0.07406138  0.08650102     0.13900
C75         C  0.38437297  0.40262354  0.25201827    -0.15700
C76         C  0.34946857  0.36083685  0.25788444    -0.30800
H77         H  0.38564345  0.42230141  0.22384619     0.13400
H78         H  0.34837170  0.34098437  0.28599221     0.13900
C79         C  0.37364532  0.14084050  0.23876734    -0.15700
C80         C  0.41850844  0.14976960  0.25982217    -0.30800
H81         H  0.34990656  0.10370098  0.24245467     0.13400
H82         H  0.44020672  0.18824719  0.25887054     0.13900
C83         C  0.10095741  0.36854171  0.25752997    -0.15700
C84         C  0.14612716  0.38841690  0.24062330    -0.30800
H85         H  0.08765155  0.32733522  0.25322887     0.13400
H86         H  0.15890846  0.43000136  0.24291107     0.13900
C87         C  0.36832731  0.40157640  0.07353418    -0.15700
C88         C  0.38841186  0.37121049  0.10214992    -0.30800
H89         H  0.32571897  0.39729248  0.06604489     0.13400
H90         H  0.43099250  0.37516206  0.10971921     0.13900
O91         O  0.38327136  0.45503454  0.35687882    -0.79400
O92         O  0.11396366  0.05572666  0.35755360    -0.79400
O93         O  0.05195580  0.42291587  0.36594852    -0.79400
O94         O  0.45740361  0.08320615  0.39674782    -0.79300
O95         O  0.12920242  0.47043226  0.35551711    -0.79500
O96         O  0.38876525  0.05706310  0.35918664    -0.79400
O97         O  0.04018041  0.05387649  0.39335867    -0.79400
O98         O  0.44847249  0.43613989  0.39468900    -0.79400
C99         C  0.39926972  0.43241832  0.38731441     1.10300
C100        C  0.08946053  0.06737752  0.38885327     1.10200
C101        C  0.10342340  0.43191002  0.37206073     1.10300
C102        C  0.40701884  0.07544788  0.39085957     1.10200
O103        O  0.38281723  0.05618762  0.63299134    -0.79400
O104        O  0.07175170  0.44370354  0.62491802    -0.79400
O105        O  0.43893681  0.40103797  0.63604209    -0.79400
O106        O  0.04436975  0.11284536  0.65181421    -0.79400
O107        O  0.06625620  0.05238221  0.61196062    -0.79400
O108        O  0.43417265  0.47610162  0.60403946    -0.79400
O109        O  0.46498356  0.09419576  0.63072857    -0.79300
O110        O  0.02057378  0.36980513  0.63217936    -0.79400
Co111      Co  0.43172778  0.51182293  0.33026723     1.51500
Co112      Co  0.09299594  0.00516822  0.65101388     1.51700
Co113      Co  0.49342540  0.41382529  0.35245903     1.51600
Co114      Co  0.50110704  0.07061033  0.68118701     1.51500
O115        O  0.50842198  0.49087993  0.33741482    -1.41300
C116        C  0.41543329  0.09288064  0.62027424     1.10200
C117        C  0.05944106  0.39515582  0.61570626     1.10300
C118        C  0.42303866  0.42703141  0.60653142     1.10300
C119        C  0.06750324  0.09999135  0.62060715     1.10200
O120        O  0.29576291  0.29151137  0.56213406    -0.79400
O121        O  0.17062270  0.20387679  0.55168904    -0.79400
O122        O  0.18883308  0.37341527  0.51397947    -0.79400
O123        O  0.28391033  0.17676410  0.54402122    -0.79300
O124        O  0.16049843  0.30593208  0.55079129    -0.79500
O125        O  0.36563864  0.21646860  0.54200240    -0.79400
O126        O  0.19081542  0.14224492  0.51277354    -0.79400
O127        O  0.29784836  0.36326096  0.52566787    -0.79400
C128        C  0.30943856  0.33983962  0.55741814     1.10300
C129        C  0.16669398  0.15632201  0.54308406     1.10200
C130        C  0.16349161  0.35468827  0.54337670     1.10300
C131        C  0.33291932  0.18060000  0.55597647     1.10200
O132        O  0.33071365  0.20785528  0.46787163    -0.79400
O133        O  0.12337667  0.30356246  0.47261213    -0.79400
O134        O  0.30007330  0.31755272  0.44691228    -0.79400
O135        O  0.21710064  0.19451179  0.43918320    -0.79400
O136        O  0.13794514  0.19657125  0.46833244    -0.79400
O137        O  0.35886025  0.30515374  0.49158272    -0.79400
O138        O  0.28817865  0.12940938  0.47333358    -0.79300
O139        O  0.19521087  0.32848780  0.43824974    -0.79400
Co140      Co  0.30742567  0.24857803  0.51618879     1.51500
Co141      Co  0.15276434  0.25260778  0.51065542     1.51700
Co142      Co  0.24524170  0.34125572  0.48152755     1.51600
Co143      Co  0.25195391  0.19022401  0.48987877     1.51700
O144        O  0.23227935  0.26506882  0.49878134    -1.41300
C145        C  0.32792638  0.15826337  0.46041577     1.10200
C146        C  0.14483261  0.32654661  0.44328934     1.10300
C147        C  0.34701620  0.32579141  0.45926115     1.10300
C148        C  0.16696830  0.18290074  0.43967959     1.10200
C149        C  0.14465662  0.14697761  0.40925984    -0.15700
C150        C  0.11478012  0.10263122  0.41853371    -0.30800
H151        H  0.15680693  0.15437862  0.37939043     0.13400
H152        H  0.10296338  0.09564779  0.44853618     0.13900
C153        C  0.13193365  0.11990648  0.56707994    -0.15700
C154        C  0.10031192  0.13748706  0.59597606    -0.30800
H155        H  0.13188368  0.07810025  0.56063151     0.13400
H156        H  0.10033890  0.17927704  0.60247277     0.13900
C157        C  0.13329328  0.39877341  0.39828572    -0.15700
C158        C  0.11128646  0.35588928  0.41661400    -0.30800
H159        H  0.17584358  0.41020051  0.40234172     0.13400
H160        H  0.06837223  0.34515163  0.41435364     0.13900
C161        C  0.37080706  0.13787074  0.43609210    -0.15700
C162        C  0.36722707  0.09012697  0.41994384    -0.30800
H163        H  0.40552425  0.16464416  0.42941737     0.13400
H164        H  0.33076128  0.06467766  0.42378670     0.13900
C165        C  0.38554022  0.40243358  0.57723495    -0.15700
C166        C  0.34610432  0.36556177  0.58675571    -0.30800
H167        H  0.38747358  0.41812444  0.54787307     0.13400
H168        H  0.34412926  0.35016055  0.61620209     0.13900
C169        C  0.34837092  0.14267947  0.58572095    -0.15700
C170        C  0.39970970  0.13336400  0.59253794    -0.30800
H171        H  0.31637485  0.11892966  0.60029578     0.13400
H172        H  0.43170349  0.15694606  0.57782092     0.13900
C173        C  0.08938647  0.36801881  0.58647345    -0.15700
C174        C  0.13359313  0.38899515  0.56842875    -0.30800
H175        H  0.07564544  0.32719367  0.58110823     0.13400
H176        H  0.14694381  0.43026026  0.57182187     0.13900
C177        C  0.36362399  0.39672099  0.41099787    -0.15700
C178        C  0.38341338  0.36406552  0.43821634    -0.30800
H179        H  0.32070201  0.39497889  0.40437602     0.13400
H180        H  0.42616270  0.36610175  0.44535983     0.13900
O181        O  0.38271698  0.45404077  0.67816460    -0.79400
O182        O  0.10904718  0.06260455  0.69244315    -0.79400
O183        O  0.04949789  0.41093451  0.70134507    -0.79400
O184        O  0.46749816  0.12844607  0.70625020    -0.79300
O185        O  0.12737328  0.45683686  0.69078046    -0.79500
O186        O  0.42477259  0.04987689  0.70617390    -0.79400
O187        O  0.03356390  0.05866185  0.72627458    -0.79400
O188        O  0.44692443  0.43822959  0.71776660    -0.79400
C189        C  0.39813311  0.43248120  0.70911376     1.10300
C190        C  0.08282073  0.07399228  0.72303419     1.10200
C191        C  0.10128160  0.41792533  0.70635251     1.10300
C192        C  0.42977053  0.09686567  0.71941009     1.10200
O193        O  0.36948273  0.02982280  0.96031623    -0.79400
O194        O  0.06092032  0.46360673  0.94346510    -0.79400
O195        O  0.44974725  0.39436847  0.98352702    -0.79400
O196        O  0.06248377  0.11398579  0.98913943    -0.79400
O197        O  0.07517245  0.05662989  0.94514152    -0.79400
O198        O  0.43665071  0.45969174  0.94235188    -0.79400
O199        O  0.44363521  0.08186156  0.95780830    -0.79300
O200        O  0.03974250  0.39161466  0.97843098    -0.79400
Co201      Co  0.42990690  0.51337227  0.65351849     1.51500
Co202      Co  0.10017938  0.00431672  0.98101125     1.51700
Co203      Co  0.49701390  0.41988615  0.67744067     1.51600
Co204      Co  0.48888871  0.06784807  0.00792971     1.51500
O205        O  0.50740553  0.49735953  0.66288582    -1.41300
C206        C  0.39392441  0.07185470  0.94781180     1.10200
C207        C  0.06058669  0.41368551  0.94820394     1.10300
C208        C  0.42997513  0.41137438  0.95189218     1.10300
C209        C  0.08297865  0.10270241  0.95680032     1.10200
O210        O  0.31082608  0.30630044  0.89328122    -0.79400
O211        O  0.18722259  0.20679735  0.89043733    -0.79400
O212        O  0.18484025  0.37206687  0.84497948    -0.79400
O213        O  0.30900634  0.18328517  0.87574819    -0.79300
O214        O  0.16150450  0.30893948  0.88710865    -0.79500
O215        O  0.38358574  0.23451146  0.87055699    -0.79400
O216        O  0.21144006  0.14479148  0.85247448    -0.79400
O217        O  0.29510655  0.37339962  0.85395600    -0.79400
C218        C  0.31511152  0.35536704  0.88533856     1.10300
C219        C  0.18699909  0.15879296  0.88284843     1.10200
C220        C  0.16091988  0.35661874  0.87597909     1.10300
C221        C  0.35922504  0.19311711  0.88448914     1.10200
O222        O  0.33977504  0.22118717  0.79871227    -0.79400
O223        O  0.12423514  0.29531995  0.80988573    -0.79400
O224        O  0.29993921  0.32288213  0.77715807    -0.79400
O225        O  0.22312340  0.19517187  0.77642248    -0.79400
O226        O  0.14726386  0.19036686  0.80971719    -0.79400
O227        O  0.36244946  0.31861684  0.82047162    -0.79400
O228        O  0.30638842  0.13890749  0.80420305    -0.79300
O229        O  0.19334136  0.31693153  0.77232167    -0.79400
Co230      Co  0.31887906  0.26019371  0.84856035     1.51500
Co231      Co  0.16034512  0.25067088  0.84924598     1.51700
Co232      Co  0.24345758  0.34186375  0.81280223     1.51600
Co233      Co  0.26600932  0.19523982  0.82461148     1.51700
O234        O  0.23993998  0.26825863  0.83533609    -1.41300
C235        C  0.34078313  0.17252369  0.78920762     1.10200
C236        C  0.14335347  0.31511036  0.77867846     1.10300
C237        C  0.34734113  0.33472628  0.78764014     1.10300
C238        C  0.17405721  0.17905096  0.77940400     1.10200
C239        C  0.15063335  0.14315528  0.74854096    -0.15700
C240        C  0.10692956  0.10936924  0.75395034    -0.30800
H241        H  0.17187206  0.14268239  0.72105505     0.13400
H242        H  0.08571046  0.10995538  0.78144306     0.13900
C243        C  0.15275342  0.12180141  0.90673993    -0.15700
C244        C  0.11979820  0.13941335  0.93470892    -0.30800
H245        H  0.15242793  0.08003750  0.90003499     0.13400
H246        H  0.12055620  0.18104060  0.94188213     0.13900
C247        C  0.13125821  0.38281693  0.73069439    -0.15700
C248        C  0.10867127  0.34281664  0.75187499    -0.30800
H249        H  0.17462490  0.39197865  0.73211768     0.13400
H250        H  0.06516081  0.33478344  0.75252768     0.13900
C251        C  0.38143479  0.15940505  0.75978393    -0.15700
C252        C  0.39148072  0.11010973  0.75036132    -0.30800
H253        H  0.40440027  0.19197669  0.74565654     0.13400
H254        H  0.36795509  0.07759666  0.76411368     0.13900
C255        C  0.39343434  0.37494361  0.92902320    -0.15700
C256        C  0.35059023  0.39163651  0.90914251    -0.30800
H257        H  0.39956108  0.33302826  0.93085031     0.13400
H258        H  0.34449537  0.43356634  0.90737933     0.13900
C259        C  0.38750959  0.15699105  0.91098161    -0.15700
C260        C  0.36613856  0.10840059  0.92137003    -0.30800
H261        H  0.42757782  0.17000100  0.92116183     0.13400
H262        H  0.32615083  0.09541890  0.91100352     0.13900
C263        C  0.08834222  0.37894464  0.92121049    -0.15700
C264        C  0.13013116  0.39498031  0.89819423    -0.30800
H265        H  0.07759565  0.33686882  0.92371275     0.13400
H266        H  0.14144962  0.43685001  0.89512984     0.13900
C267        C  0.36225352  0.39772563  0.73335753    -0.15700
C268        C  0.38226776  0.36986351  0.76315513    -0.30800
H269        H  0.31949286  0.39380344  0.72613797     0.13400
H270        H  0.42491605  0.37434869  0.77063739     0.13900
O271        O  0.38682712  0.94501900  0.00859023    -0.79400
O272        O  0.08461767  0.54967846  0.04263072    -0.79400
O273        O  0.06918199  0.91994009  0.05221514    -0.79400
O274        O  0.45290840  0.63589766  0.01820238    -0.79300
O275        O  0.13529939  0.95129297  0.01422561    -0.79500
O276        O  0.41279095  0.55750165  0.03114719    -0.79400
O277        O  0.04248071  0.62439897  0.04190473    -0.79400
O278        O  0.44660730  0.93678555  0.05346379    -0.79400
C279        C  0.39956121  0.92628811  0.04120064     1.10300
C280        C  0.07995225  0.59750366  0.05459157     1.10200
C281        C  0.11893829  0.92911019  0.04545133     1.10300
C282        C  0.41677739  0.60782173  0.03583464     1.10200
O283        O  0.36925646  0.54575196  0.31331687    -0.79400
O284        O  0.07966711  0.94569623  0.27635750    -0.79400
O285        O  0.45531784  0.89598845  0.32401062    -0.79400
O286        O  0.04398639  0.56220600  0.26525673    -0.79400
O287        O  0.10943045  0.55040926  0.30562307    -0.79400
O288        O  0.43661495  0.95614915  0.28254055    -0.79400
O289        O  0.45023283  0.58357825  0.30105622    -0.79300
O290        O  0.05693989  0.88077647  0.31747434    -0.79400
Co291      Co  0.43337179  0.00371563  0.98290688     1.51500
Co292      Co  0.06504938  0.49681398  0.33729591     1.51700
Co293      Co  0.50419276  0.91800125  0.01841993     1.51600
Co294      Co  0.49267883  0.56633706  0.35014199     1.51500
O295        O  0.51005077  0.99304843  0.99752830    -1.41300
C296        C  0.39889473  0.58086699  0.29584761     1.10200
C297        C  0.07437720  0.89714503  0.28496320     1.10300
C298        C  0.43259433  0.90871314  0.29275295     1.10300
C299        C  0.09372975  0.56516107  0.27266218     1.10200
O300        O  0.32971608  0.80056899  0.22637193    -0.79400
O301        O  0.20671869  0.70875870  0.22993688    -0.79400
O302        O  0.21447682  0.83358621  0.20800200    -0.79400
O303        O  0.31096346  0.63350540  0.18095368    -0.79300
O304        O  0.13705339  0.78461842  0.20983329    -0.79500
O305        O  0.33048913  0.69445078  0.22474774    -0.79400
O306        O  0.20455936  0.64168610  0.18931255    -0.79400
O307        O  0.31422222  0.86241264  0.18471736    -0.79400
C308        C  0.33456232  0.84836498  0.21663437     1.10300
C309        C  0.19672310  0.66012740  0.22308359     1.10200
C310        C  0.16549341  0.82528450  0.22007737     1.10300
C311        C  0.32542895  0.64660680  0.21496318     1.10200
O312        O  0.37773534  0.70046456  0.14836450    -0.79400
O313        O  0.17608303  0.80402087  0.13825325    -0.79400
O314        O  0.30013710  0.81356110  0.11033060    -0.79400
O315        O  0.20150150  0.69230280  0.11253341    -0.79400
O316        O  0.14541745  0.70580387  0.15927736    -0.79400
O317        O  0.37275862  0.80560879  0.14670139    -0.79400
O318        O  0.31008336  0.68768628  0.10722321    -0.79300
O319        O  0.22672379  0.87956299  0.13732262    -0.79400
Co320      Co  0.34809405  0.74996736  0.18658234     1.51500
Co321      Co  0.19715132  0.75752669  0.18592474     1.51700
Co322      Co  0.25597303  0.81765486  0.15718051     1.51600
Co323      Co  0.25731744  0.66853376  0.14760721     1.51700
O324        O  0.27067633  0.74249037  0.16864731    -1.41300
C325        C  0.35987494  0.68877847  0.11487077     1.10200
C326        C  0.18504092  0.85216833  0.12627625     1.10300
C327        C  0.35048481  0.82133148  0.11559145     1.10300
C328        C  0.15402845  0.68975714  0.12541789     1.10200
C329        C  0.11042183  0.66475310  0.10212414    -0.15700
C330        C  0.11909348  0.62070589  0.08237580    -0.30800
H331        H  0.07129478  0.68174670  0.10158382     0.13400
H332        H  0.15720539  0.60212988  0.08561765     0.13900
C333        C  0.16994065  0.62623557  0.25325577    -0.15700
C334        C  0.13162622  0.58882161  0.24363963    -0.30800
H335        H  0.17540327  0.63726387  0.28344229     0.13400
H336        H  0.12196378  0.58218808  0.21326607     0.13900
C337        C  0.15904225  0.91200754  0.07365665    -0.15700
C338        C  0.14597245  0.87338017  0.09928154    -0.30800
H339        H  0.20026141  0.92888528  0.07187595     0.13400
H340        H  0.10571427  0.85398805  0.09889606     0.13900
C341        C  0.39681628  0.67119605  0.08556786    -0.15700
C342        C  0.38040510  0.63110390  0.06277566    -0.30800
H343        H  0.43849490  0.68706337  0.08516221     0.13400
H344        H  0.34036879  0.61176131  0.06635249     0.13900
C345        C  0.39895828  0.87036308  0.26984109    -0.15700
C346        C  0.36731817  0.88617330  0.24051171    -0.30800
H347        H  0.39931536  0.82882364  0.27763458     0.13400
H348        H  0.36720617  0.92773565  0.23270811     0.13900
C349        C  0.34011778  0.60613979  0.24277504    -0.15700
C350        C  0.37689792  0.61916541  0.26981069    -0.30800
H351        H  0.32456726  0.56550876  0.23935683     0.13400
H352        H  0.39617451  0.65878527  0.27037063     0.13900
C353        C  0.09311874  0.85853351  0.25840475    -0.15700
C354        C  0.14369772  0.86396731  0.24553579    -0.30800
H355        H  0.06758000  0.82306898  0.25274735     0.13400
H356        H  0.16964330  0.89835224  0.25349236     0.13900
C357        C  0.36295586  0.88874524  0.06307272    -0.15700
C358        C  0.38356664  0.85443126  0.08832928    -0.30800
H359        H  0.31958476  0.88918793  0.05858494     0.13400
H360        H  0.42714010  0.85439956  0.09204705     0.13900
O361        O  0.40207344  0.95211833  0.36585110    -0.79400
O362        O  0.06482469  0.54623106  0.38098711    -0.79400
O363        O  0.06135981  0.92588215  0.39264953    -0.79400
O364        O  0.46102539  0.62740015  0.37209832    -0.79300
O365        O  0.12625355  0.94859552  0.35095339    -0.79500
O366        O  0.42143943  0.54895228  0.38292824    -0.79400
O367        O  0.05220657  0.61342138  0.34133318    -0.79400
O368        O  0.48082337  0.95059191  0.39569196    -0.79400
C369        C  0.43070074  0.94049294  0.39548134     1.10300
C370        C  0.07068614  0.59510758  0.37279807     1.10200
C371        C  0.11050632  0.92762868  0.38261227     1.10300
C372        C  0.42510422  0.59870379  0.38989500     1.10200
O373        O  0.36624944  0.54438329  0.63571999    -0.79400
O374        O  0.08632581  0.95172496  0.60976503    -0.79400
O375        O  0.44921654  0.90678685  0.63565798    -0.79400
O376        O  0.04325779  0.55467848  0.60853090    -0.79400
O377        O  0.10872141  0.54097764  0.64784445    -0.79400
O378        O  0.44855271  0.98257429  0.60339424    -0.79400
O379        O  0.44395640  0.58758846  0.62360333    -0.79300
O380        O  0.06769326  0.88385067  0.64825295    -0.79400
Co381      Co  0.41852060  0.00672959  0.32222071     1.51500
Co382      Co  0.06317838  0.48656877  0.67645933     1.51700
Co383      Co  0.51647083  0.94305400  0.34632516     1.51600
Co384      Co  0.48562075  0.57210206  0.67455258     1.51500
O385        O  0.49745502  0.01786771  0.33675938    -1.41300
C386        C  0.39275611  0.58102702  0.61759275     1.10200
C387        C  0.08507499  0.90279600  0.61622217     1.10300
C388        C  0.43687959  0.93351253  0.60564918     1.10300
C389        C  0.09251955  0.56002658  0.61655969     1.10200
O390        O  0.33402060  0.79557712  0.54615053    -0.79400
O391        O  0.13036756  0.68474817  0.51444351    -0.79400
O392        O  0.21265401  0.80141900  0.56420823    -0.79400
O393        O  0.30314478  0.68567412  0.55365354    -0.79300
O394        O  0.13853854  0.78945306  0.52965822    -0.79500
O395        O  0.36747125  0.71295605  0.51467920    -0.79400
O396        O  0.19661845  0.66603268  0.55366522    -0.79400
O397        O  0.29515643  0.86819805  0.54291889    -0.79400
C398        C  0.33143624  0.84266505  0.55685205     1.10300
C399        C  0.14744216  0.66235636  0.54456122     1.10200
C400        C  0.16203177  0.80138033  0.56172537     1.10300
C401        C  0.35208116  0.68657412  0.54465134     1.10200
O402        O  0.31297334  0.73130740  0.44171962    -0.79400
O403        O  0.18227215  0.80921032  0.45016956    -0.79400
O404        O  0.29294136  0.84472460  0.46741858    -0.79400
O405        O  0.19831208  0.63232047  0.47481109    -0.79400
O406        O  0.17677253  0.70064878  0.43945931    -0.79400
O407        O  0.37476999  0.81295068  0.47298402    -0.79400
O408        O  0.30853563  0.65421968  0.47185270    -0.79300
O409        O  0.19108603  0.86483443  0.49718731    -0.79400
Co410      Co  0.31758920  0.76661044  0.49239137     1.51500
Co411      Co  0.16315015  0.74607573  0.48392829     1.51700
Co412      Co  0.24713836  0.81950299  0.51455784     1.51600
Co413      Co  0.25149143  0.66387659  0.51359724     1.51700
O414        O  0.24173987  0.74093918  0.50342078    -1.41300
C415        C  0.32418871  0.68334172  0.44300579     1.10200
C416        C  0.17462601  0.85436686  0.46381528     1.10300
C417        C  0.34317813  0.84525956  0.45776155     1.10300
C418        C  0.17588771  0.65129932  0.44517075     1.10200
C419        C  0.14372134  0.61484505  0.41983607    -0.15700
C420        C  0.10344188  0.63137536  0.39768787    -0.30800
H421        H  0.15070879  0.57306371  0.42149902     0.13400
H422        H  0.09660285  0.67314806  0.39578123     0.13900
C423        C  0.11028339  0.62807655  0.56746840    -0.15700
C424        C  0.12917840  0.59305888  0.59256284    -0.30800
H425        H  0.06717624  0.63030466  0.56278348     0.13400
H426        H  0.17225616  0.59101180  0.59742885     0.13900
C427        C  0.14906523  0.89857712  0.40482901    -0.15700
C428        C  0.14419295  0.89260487  0.44291160    -0.30800
H429        H  0.18029058  0.87920707  0.38922381     0.13400
H430        H  0.11601972  0.91519086  0.45903941     0.13900
C431        C  0.36166327  0.66362800  0.41346377    -0.15700
C432        C  0.38855605  0.61966072  0.41923451    -0.30800
H433        H  0.36950768  0.68712234  0.38739565     0.13400
H434        H  0.37960587  0.59531406  0.44473067     0.13900
C435        C  0.40066375  0.90910204  0.57643562    -0.15700
C436        C  0.36908992  0.86584513  0.58524922    -0.30800
H437        H  0.39668575  0.92873565  0.54851019     0.13400
H438        H  0.37258934  0.84583221  0.61300006     0.13900
C439        C  0.38761177  0.65406559  0.56817915    -0.15700
C440        C  0.36441734  0.61425132  0.59003428    -0.30800
H441        H  0.43103120  0.66207824  0.56766123     0.13400
H442        H  0.32098999  0.60592234  0.58866807     0.13900
C443        C  0.10543170  0.86859057  0.58579064    -0.15700
C444        C  0.13224114  0.82524787  0.59338975    -0.30800
H445        H  0.10386465  0.88306429  0.55610046     0.13400
H446        H  0.14002021  0.81376636  0.62315546     0.13900
C447        C  0.40907886  0.90821884  0.42807511    -0.15700
C448        C  0.36121340  0.88176349  0.42666758    -0.30800
H449        H  0.43559229  0.90205803  0.45260013     0.13400
H450        H  0.33357792  0.88846200  0.40296103     0.13900
O451        O  0.38864814  0.96085260  0.67405192    -0.79400
O452        O  0.06657064  0.53197617  0.72257277    -0.79400
O453        O  0.05955862  0.92714044  0.72521889    -0.79400
O454        O  0.44818767  0.62913222  0.69669206    -0.79300
O455        O  0.12832019  0.95644244  0.68892684    -0.79500
O456        O  0.41603232  0.54739014  0.70658363    -0.79400
O457        O  0.05357580  0.60233723  0.68563284    -0.79400
O458        O  0.44924625  0.94382181  0.71626549    -0.79400
C459        C  0.40116717  0.93811624  0.70529008     1.10300
C460        C  0.07128767  0.58154452  0.71648623     1.10200
C461        C  0.10949875  0.93672098  0.72055851     1.10300
C462        C  0.41654601  0.59643895  0.71516920     1.10200
O463        O  0.36893189  0.53703026  0.96109184    -0.79400
O464        O  0.08793687  0.95496848  0.93744506    -0.79400
O465        O  0.45417185  0.88973078  0.97625412    -0.79400
O466        O  0.06036524  0.58555437  0.97035853    -0.79400
O467        O  0.13273643  0.53791008  0.97437956    -0.79400
O468        O  0.44455938  0.95947071  0.93798897    -0.79400
O469        O  0.44648562  0.58221116  0.95093214    -0.79300
O470        O  0.06760380  0.88439376  0.97316803    -0.79400
Co471      Co  0.44176590  0.01836146  0.65289848     1.51500
Co472      Co  0.06600507  0.50810633  0.99093642     1.51700
Co473      Co  0.50233096  0.92099824  0.67959833     1.51600
Co474      Co  0.48653663  0.57398015  0.00390001     1.51500
O475        O  0.51723090  0.99705931  0.66498802    -1.41300
C476        C  0.39549573  0.57468905  0.94366396     1.10200
C477        C  0.08486092  0.90554835  0.94169657     1.10300
C478        C  0.44024398  0.90997369  0.94405621     1.10300
C479        C  0.10997539  0.57761555  0.96139039     1.10200
O480        O  0.33864595  0.81220072  0.86817161    -0.79400
O481        O  0.13409008  0.69458311  0.85269304    -0.79400
O482        O  0.22152766  0.81272600  0.88578008    -0.79400
O483        O  0.30946811  0.69391339  0.88660627    -0.79300
O484        O  0.14677562  0.80177499  0.85137268    -0.79500
O485        O  0.37068249  0.71268709  0.84439142    -0.79400
O486        O  0.20367374  0.68079231  0.89053809    -0.79400
O487        O  0.29650873  0.88419526  0.85390030    -0.79400
C488        C  0.33361709  0.86238877  0.87187445     1.10300
C489        C  0.15357916  0.67788571  0.88423611     1.10200
C490        C  0.17095241  0.81516769  0.88286530     1.10300
C491        C  0.35675014  0.68927342  0.87568897     1.10200
O492        O  0.31312960  0.72411512  0.77263393    -0.79400
O493        O  0.18916612  0.79503430  0.77041379    -0.79400
O494        O  0.30741290  0.83413482  0.78604617    -0.79400
O495        O  0.19816386  0.62893723  0.81760668    -0.79400
O496        O  0.17695321  0.68951338  0.77540886    -0.79400
O497        O  0.38540162  0.80040141  0.79860938    -0.79400
O498        O  0.30789346  0.64966604  0.80637289    -0.79300
O499        O  0.20862173  0.85963535  0.80955066    -0.79400
Co500      Co  0.32207972  0.76612930  0.81939616     1.51500
Co501      Co  0.16664044  0.74561573  0.81273034     1.51700
Co502      Co  0.26443800  0.81889488  0.83765623     1.51600
Co503      Co  0.25481948  0.66780015  0.84965959     1.51700
O504        O  0.24462043  0.74203303  0.83012321    -1.41300
C505        C  0.32115688  0.67587415  0.77540806     1.10200
C506        C  0.19260717  0.84370643  0.77661122     1.10300
C507        C  0.35832698  0.83187275  0.77916259     1.10300
C508        C  0.17527362  0.64202752  0.78655501     1.10200
C509        C  0.14261812  0.60206732  0.76478970    -0.15700
C510        C  0.10160591  0.61701765  0.74285689    -0.30800
H511        H  0.15127926  0.56078076  0.76730451     0.13400
H512        H  0.09352247  0.65853090  0.74086508     0.13900
C513        C  0.11871963  0.64908882  0.91252930    -0.15700
C514        C  0.14073710  0.61297265  0.93515847    -0.30800
H515        H  0.07543484  0.65347885  0.91239525     0.13400
H516        H  0.18360315  0.60667803  0.93300235     0.13900
C517        C  0.14517054  0.91939163  0.75175721    -0.15700
C518        C  0.17662563  0.87942577  0.74524347    -0.30800
H519        H  0.13500085  0.92881221  0.78142047     0.13400
H520        H  0.18074095  0.86564679  0.71570588     0.13900
C521        C  0.35213240  0.65416820  0.74341306    -0.15700
C522        C  0.38196408  0.61246310  0.74721630    -0.30800
H523        H  0.35517820  0.67709067  0.71658465     0.13400
H524        H  0.37879221  0.58808310  0.77328442     0.13900
C525        C  0.41080538  0.87603012  0.91616304    -0.15700
C526        C  0.36900149  0.89479329  0.89713673    -0.30800
H527        H  0.41883055  0.83449881  0.91477295     0.13400
H528        H  0.35981814  0.93586209  0.90042774     0.13900
C529        C  0.39099291  0.65225553  0.89711499    -0.15700
C530        C  0.36740193  0.61002185  0.91658539    -0.30800
H531        H  0.43457051  0.65941495  0.89704885     0.13400
H532        H  0.32388410  0.60266741  0.91456641     0.13900
C533        C  0.10415834  0.87312374  0.90967955    -0.15700
C534        C  0.14148340  0.83770651  0.91553454    -0.30800
H535        H  0.09429972  0.88445286  0.88023114     0.13400
H536        H  0.15623884  0.83124730  0.94471420     0.13900
C537        C  0.36397840  0.90207641  0.72778112    -0.15700
C538        C  0.38613137  0.86439631  0.74925901    -0.30800
H539        H  0.32088632  0.90722857  0.72808015     0.13400
H540        H  0.42914179  0.85908069  0.74680623     0.13900
O541        O  0.87133433  0.44723597  0.01435226    -0.79400
O542        O  0.60798958  0.06343636  0.01610821    -0.79400
O543        O  0.55961445  0.44608962  0.06145420    -0.79400
O544        O  0.97112924  0.12268583  0.03565136    -0.79300
O545        O  0.62513584  0.47035894  0.02100925    -0.79500
O546        O  0.92745546  0.04459278  0.03887193    -0.79400
O547        O  0.53660575  0.06906749  0.05393310    -0.79400
O548        O  0.93460947  0.43273519  0.05659194    -0.79400
C549        C  0.88631351  0.42665949  0.04608109     1.10300
C550        C  0.58663347  0.07851793  0.04739796     1.10200
C551        C  0.60916171  0.45081690  0.05311079     1.10300
C552        C  0.93155727  0.09366719  0.04855164     1.10200
O553        O  0.87386424  0.03184522  0.30399097    -0.79400
O554        O  0.57093490  0.44929147  0.27611602    -0.79400
O555        O  0.95750549  0.44364435  0.27116220    -0.79400
O556        O  0.56304848  0.11220099  0.30930991    -0.79400
O557        O  0.56197107  0.03804246  0.27586276    -0.79400
O558        O  0.88497978  0.44556690  0.30829881    -0.79400
O559        O  0.95156438  0.07848545  0.29802837    -0.79300
O560        O  0.53894391  0.38208079  0.31246404    -0.79400
Co561      Co  0.91153519  0.50369113  0.98094377     1.51500
Co562      Co  0.57280722  0.99840166  0.32333620     1.51700
Co563      Co  0.98694586  0.41525091  0.01798879     1.51600
Co564      Co  0.99581534  0.06120670  0.34707789     1.51500
O565        O  0.98721636  0.49174605  0.00076142    -1.41300
C566        C  0.90092385  0.07156676  0.29000169     1.10200
C567        C  0.56041250  0.40028783  0.28149244     1.10300
C568        C  0.90691405  0.43723044  0.27546829     1.10300
C569        C  0.57239507  0.08696368  0.27816375     1.10200
O570        O  0.80883272  0.29687227  0.22724174    -0.79400
O571        O  0.68691989  0.22007800  0.22410350    -0.79400
O572        O  0.69891039  0.33239383  0.20388391    -0.79400
O573        O  0.79381808  0.12806284  0.18583289    -0.79300
O574        O  0.61874891  0.29218247  0.19543192    -0.79500
O575        O  0.81599763  0.19075104  0.22761032    -0.79400
O576        O  0.68703897  0.14568080  0.19093614    -0.79400
O577        O  0.79947652  0.35944415  0.18484500    -0.79400
C578        C  0.81168378  0.34518719  0.21885508     1.10300
C579        C  0.67610889  0.17121296  0.22163002     1.10200
C580        C  0.64799197  0.32879481  0.21093446     1.10300
C581        C  0.81127223  0.14248261  0.21876746     1.10200
O582        O  0.86671559  0.19661371  0.15191063    -0.79400
O583        O  0.66847782  0.30284862  0.12555110    -0.79400
O584        O  0.78949626  0.30950956  0.11001103    -0.79400
O585        O  0.69276826  0.18520399  0.11009633    -0.79400
O586        O  0.63143603  0.20434223  0.15132148    -0.79400
O587        O  0.85940968  0.30237021  0.14912766    -0.79400
O588        O  0.80250164  0.17190794  0.10982652    -0.79300
O589        O  0.71650269  0.37820381  0.13416631    -0.79400
Co590      Co  0.83286498  0.24657908  0.18846167     1.51500
Co591      Co  0.68155550  0.26039673  0.17635704     1.51700
Co592      Co  0.74322274  0.31523515  0.15492896     1.51600
Co593      Co  0.74423719  0.16281688  0.14924424     1.51700
O594        O  0.75731011  0.23922362  0.16644745    -1.41300
C595        C  0.85208620  0.17763886  0.11923160     1.10200
C596        C  0.67702343  0.35268899  0.11824648     1.10300
C597        C  0.83903651  0.31810105  0.11729364     1.10300
C598        C  0.64405398  0.18157524  0.12039447     1.10200
C599        C  0.60434012  0.14702442  0.09859539    -0.15700
C600        C  0.62166846  0.11093190  0.07377077    -0.30800
H601        H  0.56136792  0.15068290  0.10313949     0.13400
H602        H  0.66490592  0.10816566  0.06973025     0.13900
C603        C  0.64459584  0.14641557  0.25325945    -0.15700
C604        C  0.60300507  0.11203379  0.24616809    -0.30800
H605        H  0.65233468  0.16037379  0.28257496     0.13400
H606        H  0.59528508  0.09794809  0.21688375     0.13900
C607        C  0.64855860  0.42858169  0.07938975    -0.15700
C608        C  0.64008195  0.37861671  0.09196168    -0.30800
H609        H  0.68614580  0.45113124  0.08570069     0.13400
H610        H  0.60386427  0.35564973  0.08285488     0.13900
C611        C  0.89465771  0.16048318  0.09267627    -0.15700
C612        C  0.88958498  0.11397251  0.07425603    -0.30800
H613        H  0.93260307  0.18418697  0.09097097     0.13400
H614        H  0.85299554  0.08879081  0.07869594     0.13900
C615        C  0.87496154  0.41491477  0.24274853    -0.15700
C616        C  0.83089200  0.38277448  0.24873990    -0.30800
H617        H  0.89296443  0.41735002  0.21398324     0.13400
H618        H  0.81650230  0.37556591  0.27819394     0.13900
C619        C  0.82971681  0.10221939  0.24594682    -0.15700
C620        C  0.87684914  0.11061364  0.26451787    -0.30800
H621        H  0.80770941  0.06391600  0.24767774     0.13400
H622        H  0.90040714  0.14765911  0.25967535     0.13900
C623        C  0.57659100  0.36242647  0.25237157    -0.15700
C624        C  0.62627100  0.36743662  0.23726724    -0.30800
H625        H  0.55052611  0.32734538  0.24687116     0.13400
H626        H  0.65329243  0.40074274  0.24564912     0.13900
C627        C  0.85050520  0.38907068  0.06810918    -0.15700
C628        C  0.87204034  0.35322604  0.09175670    -0.30800
H629        H  0.80700796  0.38979843  0.06438359     0.13400
H630        H  0.91562463  0.35287269  0.09522081     0.13900
O631        O  0.93417982  0.44554462  0.38799637    -0.79400
O632        O  0.62443506  0.05556615  0.34585331    -0.79400
O633        O  0.55225697  0.41813247  0.39024749    -0.79400
O634        O  0.96098817  0.11851040  0.37096523    -0.79300
O635        O  0.61802287  0.44525280  0.35062437    -0.79500
O636        O  0.92177076  0.03809883  0.37514762    -0.79400
O637        O  0.56646470  0.07275741  0.39005250    -0.79400
O638        O  0.94760576  0.38919327  0.34333461    -0.79400
C639        C  0.93196838  0.39845334  0.37705832     1.10300
C640        C  0.61415174  0.07754152  0.37762693     1.10200
C641        C  0.60104219  0.41917475  0.38000032     1.10300
C642        C  0.92532978  0.08632152  0.38616093     1.10200
O643        O  0.87135503  0.02513656  0.63425436    -0.79400
O644        O  0.57714134  0.46073399  0.60423213    -0.79400
O645        O  0.94997681  0.44366513  0.61186520    -0.79400
O646        O  0.56160762  0.11906917  0.65751050    -0.79400
O647        O  0.57586539  0.06056952  0.61393183    -0.79400
O648        O  0.88051427  0.44390125  0.65201472    -0.79400
O649        O  0.94624318  0.07547670  0.62821333    -0.79300
O650        O  0.54931380  0.39197222  0.64009406    -0.79400
Co651      Co  0.91054378  0.49835452  0.34964550     1.51500
Co652      Co  0.59605586  0.00666498  0.65035580     1.51700
Co653      Co  0.00353396  0.43717168  0.31712233     1.51600
Co654      Co  0.98987334  0.06088159  0.67864305     1.51500
O655        O  0.98729877  0.51072582  0.32877448    -1.41300
C656        C  0.89581688  0.06601482  0.62000080     1.10200
C657        C  0.57444890  0.41171395  0.61099462     1.10300
C658        C  0.89982997  0.43754111  0.61818891     1.10300
C659        C  0.58378304  0.10673845  0.62579965     1.10200
O660        O  0.80710350  0.29437943  0.56506720    -0.79400
O661        O  0.69594531  0.20618166  0.56077614    -0.79400
O662        O  0.70001670  0.37094145  0.51183905    -0.79400
O663        O  0.81332926  0.17379226  0.54378639    -0.79300
O664        O  0.68215042  0.31058115  0.55666822    -0.79500
O665        O  0.88631219  0.22769491  0.54465809    -0.79400
O666        O  0.71401678  0.14188929  0.52242668    -0.79400
O667        O  0.80547080  0.36442147  0.52624078    -0.79400
C668        C  0.81109540  0.34385679  0.55995013     1.10300
C669        C  0.69190109  0.15796105  0.55317805     1.10200
C670        C  0.67894262  0.35700285  0.54401767     1.10300
C671        C  0.86195682  0.18514960  0.55585505     1.10200
O672        O  0.84802538  0.21179057  0.47140306    -0.79400
O673        O  0.63960342  0.29865092  0.47949416    -0.79400
O674        O  0.81745450  0.31700139  0.44802792    -0.79400
O675        O  0.72385589  0.18715185  0.44572257    -0.79400
O676        O  0.65138706  0.19405773  0.48230861    -0.79400
O677        O  0.87202254  0.31030017  0.49641945    -0.79400
O678        O  0.80757533  0.13102793  0.47244469    -0.79300
O679        O  0.70774160  0.31910899  0.43954057    -0.79400
Co680      Co  0.82348327  0.25178506  0.52014728     1.51500
Co681      Co  0.67181084  0.25248544  0.51986042     1.51700
Co682      Co  0.75817197  0.33803004  0.48151670     1.51600
Co683      Co  0.76990562  0.18822217  0.49267840     1.51700
O684        O  0.74886567  0.26306661  0.50221891    -1.41300
C685        C  0.84490308  0.16363426  0.45964984     1.10200
C686        C  0.65787679  0.31770841  0.44754019     1.10300
C687        C  0.86404802  0.32495645  0.46189902     1.10300
C688        C  0.67347737  0.17874005  0.45133161     1.10200
C689        C  0.63842275  0.14740291  0.42427957    -0.15700
C690        C  0.65503705  0.11186397  0.39866541    -0.30800
H691        H  0.59532176  0.15041390  0.42858404     0.13400
H692        H  0.69776431  0.10799161  0.39346079     0.13900
C693        C  0.65591363  0.12305906  0.57733337    -0.15700
C694        C  0.62271939  0.14234191  0.60446560    -0.30800
H695        H  0.65416494  0.08113166  0.57103074     0.13400
H696        H  0.62456914  0.18414212  0.61116340     0.13900
C697        C  0.63875317  0.38740071  0.40124609    -0.15700
C698        C  0.62100063  0.34540961  0.42261176    -0.30800
H699        H  0.68167920  0.39791570  0.39862981     0.13400
H700        H  0.57801478  0.33530226  0.42541626     0.13900
C701        C  0.88467236  0.14957370  0.43012438    -0.15700
C702        C  0.88754800  0.10067448  0.41689230    -0.30800
H703        H  0.91242207  0.18081570  0.41890845     0.13400
H704        H  0.85979335  0.06952292  0.42824832     0.13900
C705        C  0.86537835  0.41755505  0.58656853    -0.15700
C706        C  0.82965145  0.37670967  0.59257502    -0.30800
H707        H  0.87721519  0.42881982  0.55714317     0.13400
H708        H  0.82258110  0.36145569  0.62181992     0.13900
C709        C  0.88899910  0.14954193  0.58296189    -0.15700
C710        C  0.86744674  0.10140177  0.59346557    -0.30800
H711        H  0.92874132  0.16279836  0.59366173     0.13400
H712        H  0.82749729  0.08815062  0.58318058     0.13900
C713        C  0.60471262  0.37636352  0.58700495    -0.15700
C714        C  0.64665350  0.39408229  0.56492902    -0.30800
H715        H  0.59536865  0.33418920  0.59026307     0.13400
H716        H  0.65604491  0.43612781  0.56101371     0.13900
C717        C  0.90461456  0.35634400  0.40069371    -0.15700
C718        C  0.90537213  0.35648734  0.43961340    -0.30800
H719        H  0.87943537  0.32656692  0.38553535     0.13400
H720        H  0.93299989  0.38378731  0.45506668     0.13900
O721        O  0.93265021  0.43980211  0.72938336    -0.79400
O722        O  0.61640985  0.05797694  0.69413821    -0.79400
O723        O  0.55291326  0.42900546  0.71738623    -0.79400
O724        O  0.94980166  0.11554131  0.70097430    -0.79300
O725        O  0.62034729  0.45974488  0.68038608    -0.79500
O726        O  0.91691842  0.03283107  0.70604297    -0.79400
O727        O  0.54131405  0.05699683  0.72846486    -0.79400
O728        O  0.94393232  0.38477772  0.68277796    -0.79400
C729        C  0.93021209  0.39302869  0.71722080     1.10300
C730        C  0.59099339  0.06942949  0.72495219     1.10200
C731        C  0.60256825  0.43255730  0.70914362     1.10300
C732        C  0.91602625  0.08139391  0.71611070     1.10200
O733        O  0.88489267  0.04133932  0.96632069    -0.79400
O734        O  0.58209929  0.45764689  0.94511414    -0.79400
O735        O  0.93043691  0.38741031  0.97937592    -0.79400
O736        O  0.54307067  0.11522045  0.97755741    -0.79400
O737        O  0.55995297  0.05148952  0.93857252    -0.79400
O738        O  0.92686711  0.45528499  0.93970683    -0.79400
O739        O  0.96608830  0.08202342  0.96265112    -0.79300
O740        O  0.56026431  0.39426512  0.98762141    -0.79400
Co741      Co  0.90987704  0.49525452  0.69252577     1.51500
Co742      Co  0.58670889  0.00529253  0.97853865     1.51700
Co743      Co  0.99904582  0.43169287  0.65518147     1.51600
Co744      Co  0.00458755  0.06348231  0.01347249     1.51500
O745        O  0.98610216  0.50462094  0.67068267    -1.41300
C746        C  0.91631077  0.07843960  0.95246718     1.10200
C747        C  0.58164329  0.40991750  0.95574122     1.10300
C748        C  0.91812549  0.40710342  0.94672966     1.10300
C749        C  0.56392760  0.09962109  0.94625427     1.10200
O750        O  0.79599035  0.27527836  0.89849071    -0.79400
O751        O  0.67520883  0.19825604  0.88244887    -0.79400
O752        O  0.69782707  0.36868719  0.85000083    -0.79400
O753        O  0.78603135  0.16283613  0.87253877    -0.79300
O754        O  0.66662441  0.30213897  0.88648882    -0.79500
O755        O  0.86716339  0.20254238  0.87521339    -0.79400
O756        O  0.69248907  0.13814475  0.84088414    -0.79400
O757        O  0.80256824  0.35050651  0.86526356    -0.79400
C758        C  0.80927198  0.32391762  0.89649181     1.10300
C759        C  0.66860623  0.15151050  0.87160625     1.10200
C760        C  0.67187549  0.35098397  0.87947724     1.10300
C761        C  0.83412324  0.16524972  0.88621452     1.10200
O762        O  0.83436067  0.20497974  0.79950173    -0.79400
O763        O  0.63379334  0.30554518  0.80697744    -0.79400
O764        O  0.81330748  0.31493875  0.78439517    -0.79400
O765        O  0.72010394  0.19719018  0.76980330    -0.79400
O766        O  0.64201661  0.19878942  0.80034814    -0.79400
O767        O  0.86572032  0.29560262  0.83204102    -0.79400
O768        O  0.79058696  0.12665622  0.79791279    -0.79300
O769        O  0.70652035  0.33102754  0.77296875    -0.79400
Co770      Co  0.81041152  0.23857813  0.85053214     1.51500
Co771      Co  0.65877157  0.25114216  0.84408603     1.51700
Co772      Co  0.75490129  0.33662755  0.81813209     1.51600
Co773      Co  0.75530669  0.18545761  0.81948577     1.51700
O774        O  0.73809366  0.26009465  0.83237027    -1.41300
C775        C  0.82971039  0.15781351  0.78639971     1.10200
C776        C  0.65595376  0.32948090  0.77811594     1.10300
C777        C  0.85977670  0.31668769  0.79902932     1.10300
C778        C  0.66999820  0.18583455  0.77109949     1.10200
C779        C  0.64690247  0.14867852  0.74226015    -0.15700
C780        C  0.61574756  0.10606024  0.75347465    -0.30800
H781        H  0.65965366  0.15332246  0.71219983     0.13400
H782        H  0.60319592  0.10160997  0.78359659     0.13900
C783        C  0.63063166  0.11579839  0.89357765    -0.15700
C784        C  0.59842000  0.13486910  0.92139208    -0.30800
H785        H  0.62909443  0.07393934  0.88705867     0.13400
H786        H  0.60006743  0.17678905  0.92773584     0.13900
C787        C  0.63999665  0.40166362  0.73183996    -0.15700
C788        C  0.62134236  0.35934475  0.75262476    -0.30800
H789        H  0.68297335  0.41244500  0.73045406     0.13400
H790        H  0.57825083  0.34893318  0.75372459     0.13900
C791        C  0.86955559  0.14381308  0.75698507    -0.15700
C792        C  0.87594533  0.09449428  0.74570109    -0.30800
H793        H  0.89587926  0.17569208  0.74502472     0.13400
H794        H  0.85022585  0.06241908  0.75800177     0.13900
C795        C  0.88714187  0.37679394  0.91796622    -0.15700
C796        C  0.84261510  0.34720404  0.92752135    -0.30800
H797        H  0.89620527  0.38549868  0.88759438     0.13400
H798        H  0.83274685  0.33809007  0.95767551     0.13900
C799        C  0.84829618  0.12500997  0.91496930    -0.15700
C800        C  0.89954662  0.11769117  0.92396334    -0.30800
H801        H  0.81606674  0.09957489  0.92771969     0.13400
H802        H  0.93139709  0.14317609  0.91074962     0.13900
C803        C  0.60908539  0.37197997  0.93181624    -0.15700
C804        C  0.64481924  0.38820336  0.90421772    -0.30800
H805        H  0.60127255  0.33017816  0.93792304     0.13400
H806        H  0.65304305  0.43008026  0.89856847     0.13900
C807        C  0.90382271  0.34964983  0.74009201    -0.15700
C808        C  0.90351746  0.34791994  0.77899976    -0.30800
H809        H  0.87907129  0.32040672  0.72407825     0.13400
H810        H  0.93031209  0.37450007  0.79571347     0.13900
O811        O  0.89863479  0.94759782  0.01188914    -0.79400
O812        O  0.60267612  0.57451155  0.02290226    -0.79400
O813        O  0.55556302  0.93946635  0.05888446    -0.79400
O814        O  0.95950167  0.55378470  0.06224673    -0.79300
O815        O  0.62203297  0.95879468  0.01776679    -0.79500
O816        O  0.88945639  0.55377466  0.02276509    -0.79400
O817        O  0.52481103  0.57482083  0.05366749    -0.79400
O818        O  0.96202138  0.92664358  0.05150203    -0.79400
C819        C  0.91325769  0.92293528  0.04206027     1.10300
C820        C  0.57471391  0.58719631  0.05241136     1.10200
C821        C  0.60487840  0.93974593  0.05005706     1.10300
C822        C  0.91018293  0.56150513  0.05624555     1.10200
O823        O  0.87387437  0.55061516  0.31519113    -0.79400
O824        O  0.63358656  0.96716329  0.30113146    -0.79400
O825        O  0.94968041  0.88967866  0.30982310    -0.79400
O826        O  0.55220737  0.61368515  0.32381563    -0.79400
O827        O  0.56486597  0.55421085  0.28109138    -0.79400
O828        O  0.94527175  0.96332487  0.27541803    -0.79400
O829        O  0.93610591  0.56067676  0.27069431    -0.79300
O830        O  0.55285239  0.92735230  0.29397153    -0.79400
Co831      Co  0.94606958  0.00741451  0.98725277     1.51500
Co832      Co  0.58593298  0.50064881  0.31813785     1.51700
Co833      Co  0.01397092  0.91096367  0.01146038     1.51600
Co834      Co  0.99360415  0.58387768  0.30592749     1.51500
O835        O  0.02307021  0.98966693  0.99899141    -1.41300
C836        C  0.88886774  0.56689579  0.28181652     1.10200
C837        C  0.60351309  0.93106728  0.28567857     1.10300
C838        C  0.93679550  0.91397082  0.27847502     1.10300
C839        C  0.57277089  0.60093534  0.29167392     1.10200
O840        O  0.82388226  0.77445950  0.22022808    -0.79400
O841        O  0.68180710  0.70381898  0.22288331    -0.79400
O842        O  0.71884897  0.87369498  0.18901757    -0.79400
O843        O  0.80062925  0.66871138  0.20483686    -0.79300
O844        O  0.68045177  0.80864234  0.22458271    -0.79500
O845        O  0.88063059  0.70011676  0.18485761    -0.79400
O846        O  0.69569615  0.64220079  0.18212884    -0.79400
O847        O  0.82470760  0.85115841  0.18990561    -0.79400
C848        C  0.83733573  0.82308556  0.21923350     1.10300
C849        C  0.67457266  0.65653788  0.21358738     1.10200
C850        C  0.69354502  0.85703777  0.21892976     1.10300
C851        C  0.85254678  0.66880933  0.20654779     1.10200
O852        O  0.82423882  0.69816270  0.11754835    -0.79400
O853        O  0.63733832  0.81199560  0.14884634    -0.79400
O854        O  0.80755728  0.81552715  0.10751769    -0.79400
O855        O  0.71522389  0.69518699  0.10810404    -0.79400
O856        O  0.64020806  0.70264138  0.14120710    -0.79400
O857        O  0.87139408  0.79246225  0.14449759    -0.79400
O858        O  0.78370185  0.62222894  0.13483980    -0.79300
O859        O  0.70597913  0.83779478  0.11129079    -0.79400
Co860      Co  0.81976126  0.73729521  0.17031107     1.51500
Co861      Co  0.66529220  0.75641756  0.18350144     1.51700
Co862      Co  0.76356581  0.83931791  0.14990485     1.51600
Co863      Co  0.75717900  0.68603328  0.15551767     1.51700
O864        O  0.74423574  0.76293976  0.16585103    -1.41300
C865        C  0.81667509  0.64789634  0.11265830     1.10200
C866        C  0.65679920  0.83790353  0.12007322     1.10300
C867        C  0.85671652  0.81723042  0.11470902     1.10300
C868        C  0.66480110  0.68822235  0.11063503     1.10200
C869        C  0.63752178  0.65822450  0.07859030    -0.15700
C870        C  0.59803781  0.62035261  0.08441959    -0.30800
H871        H  0.65531638  0.66264065  0.04988868     0.13400
H872        H  0.58017752  0.61543958  0.11305786     0.13900
C873        C  0.63870291  0.62038987  0.23784749    -0.15700
C874        C  0.60904505  0.63760504  0.26805281    -0.30800
H875        H  0.63530998  0.57900659  0.22994117     0.13400
H876        H  0.61250835  0.67891609  0.27613450     0.13900
C877        C  0.64115849  0.91037587  0.07451104    -0.15700
C878        C  0.62136615  0.87069357  0.09755864    -0.30800
H879        H  0.68441397  0.91782301  0.07082644     0.13400
H880        H  0.57806512  0.86295261  0.10082887     0.13900
C881        C  0.84401742  0.62173562  0.08077313    -0.15700
C882        C  0.87766603  0.58310670  0.08764806    -0.30800
H883        H  0.84116265  0.63828069  0.05170644     0.13400
H884        H  0.88525738  0.57090503  0.11736600     0.13900
C885        C  0.90613910  0.88755051  0.24637395    -0.15700
C886        C  0.87141886  0.84533158  0.25137709    -0.30800
H887        H  0.90780324  0.90723716  0.21823102     0.13400
H888        H  0.86926207  0.82534987  0.27939447     0.13900
C889        C  0.88008107  0.63466185  0.23319362    -0.15700
C890        C  0.85511644  0.59958476  0.25764994    -0.30800
H891        H  0.92400930  0.63826210  0.23186840     0.13400
H892        H  0.81143176  0.59692964  0.26089835     0.13900
C893        C  0.62469890  0.89307392  0.25876286    -0.15700
C894        C  0.67597555  0.89594809  0.24655676    -0.30800
H895        H  0.59700522  0.86115974  0.24879621     0.13400
H896        H  0.70333491  0.92936515  0.25404287     0.13900
C897        C  0.87579731  0.88678497  0.06460529    -0.15700
C898        C  0.89405958  0.85235248  0.09131819    -0.30800
H899        H  0.83285467  0.88754176  0.05858408     0.13400
H900        H  0.93702077  0.85149000  0.09724227     0.13900
O901        O  0.89123805  0.94281479  0.34878565    -0.79400
O902        O  0.60977861  0.55312720  0.36166896    -0.79400
O903        O  0.54756259  0.88078555  0.36447542    -0.79400
O904        O  0.94342350  0.61593948  0.34523254    -0.79300
O905        O  0.59219925  0.95747871  0.37336251    -0.79500
O906        O  0.92942373  0.55162449  0.38827209    -0.79400
O907        O  0.53559106  0.55753902  0.39682287    -0.79400
O908        O  0.95355418  0.93288159  0.39109270    -0.79400
C909        C  0.90589414  0.92303259  0.38067838     1.10300
C910        C  0.58581764  0.56626561  0.39297478     1.10200
C911        C  0.58635973  0.90743596  0.38009030     1.10300
C912        C  0.92727280  0.59949451  0.37867582     1.10200
O913        O  0.87497506  0.54975207  0.65830864    -0.79400
O914        O  0.58525855  0.95632879  0.60776225    -0.79400
O915        O  0.95691043  0.88800417  0.63762278    -0.79400
O916        O  0.54345364  0.62282079  0.65038782    -0.79400
O917        O  0.55841873  0.56229915  0.60950980    -0.79400
O918        O  0.94789569  0.96258332  0.60524626    -0.79400
O919        O  0.93669022  0.55941335  0.61316239    -0.79300
O920        O  0.55574794  0.88923126  0.64455090    -0.79400
Co921      Co  0.93788397  0.00221534  0.32332682     1.51500
Co922      Co  0.58533994  0.51224148  0.64633499     1.51700
Co923      Co  0.00527177  0.91188016  0.35274821     1.51600
Co924      Co  0.99489996  0.57794462  0.64885481     1.51500
O925        O  0.01508988  0.98743865  0.33405011    -1.41300
C926        C  0.89010499  0.56699466  0.62503782     1.10200
C927        C  0.58090265  0.90742420  0.61487849     1.10300
C928        C  0.94133018  0.91299349  0.60731429     1.10300
C929        C  0.56678718  0.60889967  0.61976420     1.10200
O930        O  0.81893146  0.77990495  0.55775392    -0.79400
O931        O  0.69108002  0.69930139  0.55872487    -0.79400
O932        O  0.70560279  0.86501421  0.51486161    -0.79400
O933        O  0.80598122  0.67042988  0.54737586    -0.79300
O934        O  0.67568480  0.80079557  0.55418916    -0.79500
O935        O  0.88588285  0.70673889  0.53173987    -0.79400
O936        O  0.70659943  0.63444138  0.52191429    -0.79400
O937        O  0.81588326  0.85279195  0.52275944    -0.79400
C938        C  0.82999580  0.82870635  0.55373185     1.10300
C939        C  0.68378519  0.65152566  0.55169891     1.10200
C940        C  0.67936329  0.84889747  0.54458356     1.10300
C941        C  0.85750617  0.67407793  0.55230169     1.10200
O942        O  0.83789323  0.69287526  0.46157663    -0.79400
O943        O  0.63560261  0.78980791  0.47717294    -0.79400
O944        O  0.80944936  0.80653161  0.44321687    -0.79400
O945        O  0.72722857  0.68032469  0.44571276    -0.79400
O946        O  0.65022434  0.68409440  0.47699789    -0.79400
O947        O  0.87249555  0.79342754  0.48410800    -0.79400
O948        O  0.79823240  0.61696385  0.48012619    -0.79300
O949        O  0.70410668  0.81913040  0.44021005    -0.79400
Co950      Co  0.82365815  0.73709328  0.51093737     1.51500
Co951      Co  0.66807109  0.74361387  0.51646925     1.51700
Co952      Co  0.75876037  0.83117748  0.48096311     1.51600
Co953      Co  0.76622732  0.67979441  0.49513870     1.51700
O954        O  0.74652828  0.75562049  0.50040005    -1.41300
C955        C  0.83284931  0.64209580  0.45901011     1.10200
C956        C  0.65404078  0.81193082  0.44657367     1.10300
C957        C  0.85764047  0.81430459  0.45275402     1.10300
C958        C  0.67714011  0.66958137  0.44756036     1.10200
C959        C  0.65240516  0.63571532  0.41660293    -0.15700
C960        C  0.61354437  0.59776591  0.42397883    -0.30800
H961        H  0.66915418  0.63966435  0.38757427     0.13400
H962        H  0.59697055  0.59410704  0.45308649     0.13900
C963        C  0.64318214  0.61962078  0.57424451    -0.15700
C964        C  0.60899602  0.64182655  0.59932321    -0.30800
H965        H  0.63926968  0.57753574  0.56850223     0.13400
H966        H  0.61291008  0.68382383  0.60536280     0.13900
C967        C  0.62443638  0.88264612  0.40586977    -0.15700
C968        C  0.61583977  0.83314303  0.41915695    -0.30800
H969        H  0.66033182  0.90618429  0.41474078     0.13400
H970        H  0.57826176  0.81052126  0.41307613     0.13900
C971        C  0.86465743  0.61255179  0.43170433    -0.15700
C972        C  0.89958051  0.63436551  0.40531985    -0.30800
H973        H  0.85808445  0.56983880  0.43337863     0.13400
H974        H  0.90484038  0.67694457  0.40183717     0.13900
C975        C  0.90860506  0.88638267  0.57619030    -0.15700
C976        C  0.86414780  0.85500144  0.58423833    -0.30800
H977        H  0.91711666  0.89786200  0.54626227     0.13400
H978        H  0.85571170  0.84386786  0.61425174     0.13900
C979        C  0.88378173  0.64078376  0.58058042    -0.15700
C980        C  0.85767798  0.60237104  0.60190029    -0.30800
H981        H  0.92759024  0.64610927  0.58205532     0.13400
H982        H  0.81386576  0.59758723  0.60242753     0.13900
C983        C  0.60899805  0.87067493  0.59055521    -0.15700
C984        C  0.65022670  0.88689412  0.56719721    -0.30800
H985        H  0.59796569  0.82883061  0.59401702     0.13400
H986        H  0.66137686  0.92867643  0.56354172     0.13900
C987        C  0.87151852  0.88414966  0.40286408    -0.15700
C988        C  0.89240909  0.85269860  0.43037188    -0.30800
H989        H  0.82883175  0.87990345  0.39551788     0.13400
H990        H  0.93512675  0.85682323  0.43764198     0.13900
O991        O  0.89250119  0.93643562  0.67707239    -0.79400
O992        O  0.60393231  0.56633279  0.68974168    -0.79400
O993        O  0.55461898  0.92729244  0.72196250    -0.79400
O994        O  0.94717840  0.61186346  0.68769041    -0.79300
O995        O  0.62470462  0.95138993  0.68518250    -0.79500
O996        O  0.93239376  0.54808487  0.73103263    -0.79400
O997        O  0.52774941  0.56709153  0.72271336    -0.79400
O998        O  0.95437749  0.92666293  0.71959534    -0.79400
C999        C  0.90712356  0.91632688  0.70877322     1.10300
C1000       C  0.57787130  0.57876110  0.72019463     1.10200
C1001       C  0.60442292  0.92745788  0.71464684     1.10300
C1002       C  0.93167895  0.59613491  0.72121660     1.10200
O1003       O  0.93951194  0.55977833  0.94547046    -0.79400
O1004       O  0.57530543  0.94828007  0.94122298    -0.79400
O1005       O  0.95640566  0.89337851  0.96955298    -0.79400
O1006       O  0.54402956  0.62220924  0.97851160    -0.79400
O1007       O  0.56122219  0.55863324  0.94119434    -0.79400
O1008       O  0.95301632  0.96924164  0.93831486    -0.79400
O1009       O  0.96155461  0.61461940  0.99144389    -0.79300
O1010       O  0.56165495  0.88705242  0.98589021    -0.79400
Co1011     Co  0.93691642  0.99904496  0.65402674     1.51500
Co1012     Co  0.58789207  0.51509114  0.98267495     1.51700
Co1013     Co  0.00947606  0.91094840  0.68224327     1.51600
Co1014     Co  0.00975264  0.56454397  0.01785839     1.51500
O1015       O  0.01500700  0.98807113  0.66633905    -1.41300
C1016       C  0.94350996  0.60626670  0.95770732     1.10200
C1017       C  0.58063038  0.90201732  0.95323099     1.10300
C1018       C  0.94155869  0.92015839  0.94011565     1.10300
C1019       C  0.56680763  0.60649027  0.94851484     1.10200
O1020       O  0.81716005  0.78422667  0.89219581    -0.79400
O1021       O  0.68893324  0.69908024  0.88949577    -0.79400
O1022       O  0.70703181  0.86771421  0.85228540    -0.79400
O1023       O  0.80332624  0.67147582  0.87848333    -0.79300
O1024       O  0.67897611  0.80117184  0.89013649    -0.79500
O1025       O  0.88443240  0.71062303  0.86837585    -0.79400
O1026       O  0.70315700  0.63712655  0.85005873    -0.79400
O1027       O  0.81769857  0.85625862  0.85654421    -0.79400
C1028       C  0.83088187  0.83241864  0.88769757     1.10300
C1029       C  0.68067194  0.65212704  0.88031135     1.10200
C1030       C  0.68175802  0.84970829  0.88204429     1.10300
C1031       C  0.85437290  0.67621108  0.88627590     1.10200
O1032       O  0.83885636  0.69402388  0.79764709    -0.79400
O1033       O  0.63551221  0.80023800  0.81399243    -0.79400
O1034       O  0.80785583  0.81065797  0.77719308    -0.79400
O1035       O  0.72422574  0.68577784  0.77668406    -0.79400
O1036       O  0.64697420  0.69265836  0.80756683    -0.79400
O1037       O  0.87151784  0.79535516  0.81745893    -0.79400
O1038       O  0.79233353  0.61950747  0.81156953    -0.79300
O1039       O  0.70379043  0.82454778  0.77599008    -0.79400
Co1040     Co  0.82272550  0.74026470  0.84596051     1.51500
Co1041     Co  0.66741089  0.74814435  0.84982170     1.51700
Co1042     Co  0.75899353  0.83519467  0.81605540     1.51600
Co1043     Co  0.76353715  0.68319011  0.82613306     1.51700
O1044       O  0.74604424  0.75889506  0.83354906    -1.41300
C1045       C  0.83107148  0.64345143  0.79396868     1.10200
C1046       C  0.65438297  0.82417018  0.78420767     1.10300
C1047       C  0.85659229  0.81558462  0.78575847     1.10300
C1048       C  0.67352244  0.67736185  0.77809668     1.10200
C1049       C  0.64742546  0.64505329  0.74638286    -0.15700
C1050       C  0.60359732  0.61158908  0.75180400    -0.30800
H1051       H  0.66762571  0.64566311  0.71845323     0.13400
H1052       H  0.58357401  0.61077898  0.77980221     0.13900
C1053       C  0.64046783  0.61874720  0.90156598    -0.15700
C1054       C  0.60563566  0.64009840  0.92618068    -0.30800
H1055       H  0.63830465  0.57657490  0.89608615     0.13400
H1056       H  0.60769817  0.68231201  0.93150834     0.13900
C1057       C  0.63920156  0.89584577  0.73854969    -0.15700
C1058       C  0.61882358  0.85561955  0.76072378    -0.30800
H1059       H  0.68257108  0.90372773  0.73604586     0.13400
H1060       H  0.57547997  0.84771086  0.76337122     0.13900
C1061       C  0.86448133  0.61233424  0.76930060    -0.15700
C1062       C  0.90487664  0.63230017  0.74684235    -0.30800
H1063       H  0.85413353  0.57008592  0.76928246     0.13400
H1064       H  0.91396157  0.67458961  0.74454942     0.13900
C1065       C  0.90535417  0.89631150  0.90960839    -0.15700
C1066       C  0.86713989  0.85765588  0.91758029    -0.30800
H1067       H  0.90717462  0.91380471  0.88079058     0.13400
H1068       H  0.86539403  0.84062550  0.94656134     0.13900
C1069       C  0.87624664  0.63999923  0.91483347    -0.15700
C1070       C  0.92338708  0.64884775  0.93351021    -0.30800
H1071       H  0.85244754  0.60318777  0.92014262     0.13400
H1072       H  0.94615909  0.68671249  0.93133841     0.13900
C1073       C  0.61320507  0.86657837  0.93102264    -0.15700
C1074       C  0.65099678  0.88537444  0.90558471    -0.30800
H1075       H  0.60764214  0.82450712  0.93693602     0.13400
H1076       H  0.65696246  0.92755253  0.90019635     0.13900
C1077       C  0.87232122  0.87887915  0.73173795    -0.15700
C1078       C  0.89248045  0.84999853  0.76113812    -0.30800
H1079       H  0.82968477  0.87474304  0.72426463     0.13400
H1080       H  0.93517590  0.85397277  0.76845297     0.13900
loop_ 
_geom_bond_atom_site_label_1 
_geom_bond_atom_site_label_2 
_geom_bond_distance 
_geom_bond_site_symmetry_2 
_ccdc_geom_bond_type 
O1            C9   1.273       .  A
O1          Co21   2.036   1_554  S
O2           C10   1.289       .  A
O2         Co202   2.080   1_554  S
O3           C11   1.258       .  A
O3         Co563   1.969   1_455  S
O4           C12   1.279       .  A
O4         Co204   1.915       .  S
O5           C11   1.257       .  A
O5         Co472   1.989   1_554  S
O6           C12   1.287       .  A
O6         Co291   2.071   1_554  S
O7           C10   1.261       .  A
O7         Co744   1.952       .  S
O8            C9   1.252       .  A
O8          Co23   1.952       .  S
C9           C87   1.477       .  S
C10          C60   1.486       .  S
C11          C67   1.465       .  S
C12          C72   1.475       .  S
O13          C26   1.267       .  A
O13        Co381   1.978       .  S
O14          C27   1.296       .  A
O14        Co292   2.112       .  S
O15          C28   1.282       .  A
O15        Co113   2.059       .  S
O16          C29   1.280       .  A
O16        Co564   2.066   1_455  S
O17          C29   1.248       .  A
O17         Co22   1.946       .  S
O18          C28   1.257       .  A
O18        Co111   1.956       .  S
O19          C26   1.266       .  A
O19         Co24   1.997       .  S
O20          C27   1.255       .  A
O20        Co653   1.864       .  S
Co21        O276   2.076   1_556  S
Co21        O463   1.916       .  S
Co21        O198   1.965       .  S
Co21         O25   2.030       .  S
Co22         O92   2.067       .  S
Co22        O365   1.990   1_545  S
Co22        O284   1.962   1_545  S
Co22        O925   2.029   1_545  S
Co23        O543   1.966       .  S
Co23        O195   2.039   1_554  S
Co23        O740   2.014   1_554  S
Co23         O25   2.032   1_554  S
Co24         O94   1.990       .  S
Co24        O637   1.962       .  S
Co24        O556   2.045       .  S
Co24        O385   2.027       .  S
O25       Co1012   2.032       .  S
O25        Co474   2.030   1_556  S
C26          C80   1.475       .  S
C27          C83   1.450       .  S
C28          C75   1.479       .  S
C29          C64   1.495       .  S
O30          C38   1.260       .  A
O30         Co50   1.950       .  S
O31          C39   1.247       .  A
O31         Co51   1.947       .  S
O32          C40   1.260       .  A
O32         Co52   1.986       .  S
O33          C41   1.285       .  A
O33         Co53   2.067       .  S
O34          C40   1.263       .  A
O34         Co51   1.959       .  S
O35          C41   1.269       .  A
O35         Co50   1.921       .  S
O36          C39   1.280       .  A
O36         Co53   2.069       .  S
O37          C38   1.286       .  A
O37         Co52   2.064       .  S
C38          C76   1.479       .  S
C39          C63   1.496       .  S
C40          C84   1.458       .  S
C41          C79   1.472       .  S
O42          C55   1.282       .  A
O42         Co50   2.059       .  S
O43          C56   1.267       .  A
O43         Co51   2.000       .  S
O44          C57   1.245       .  A
O44         Co52   1.942       .  S
O45          C58   1.258       .  A
O45         Co53   1.958       .  S
O46          C58   1.285       .  A
O46         Co51   2.071       .  S
O47          C57   1.269       .  A
O47         Co50   2.046       .  S
O48          C55   1.277       .  A
O48         Co53   1.926       .  S
O49          C56   1.262       .  A
O49         Co52   1.959       .  S
Co50         O54   2.014       .  S
Co51         O54   2.022       .  S
Co52         O54   2.030       .  S
Co53         O54   2.023       .  S
C55          C71   1.476       .  S
C56          C68   1.467       .  S
C57          C88   1.480       .  S
C58          C59   1.486       .  S
C59          C60   1.349       .  D
C59          H61   1.088       .  S
C60          H62   1.088       .  S
C63          C64   1.373       .  D
C63          H65   1.085       .  S
C64          H66   1.085       .  S
C67          C68   1.342       .  D
C67          H69   1.085       .  S
C68          H70   1.086       .  S
C71          C72   1.331       .  D
C71          H73   1.087       .  S
C72          H74   1.087       .  S
C75          C76   1.341       .  D
C75          H77   1.088       .  S
C76          H78   1.089       .  S
C79          C80   1.337       .  D
C79          H81   1.087       .  S
C80          H82   1.086       .  S
C83          C84   1.333       .  D
C83          H85   1.089       .  S
C84          H86   1.087       .  S
C87          C88   1.361       .  D
C87          H89   1.087       .  S
C88          H90   1.087       .  S
O91          C99   1.268       .  A
O91        Co111   2.033       .  S
O92         C100   1.285       .  A
O93         C101   1.301       .  A
O93        Co653   2.110       .  S
O94         C102   1.270       .  A
O95         C101   1.267       .  A
O95        Co292   1.871       .  S
O96         C102   1.264       .  A
O96        Co381   1.987       .  S
O97         C100   1.259       .  A
O97        Co564   1.953   1_455  S
O98          C99   1.245       .  A
O98        Co113   1.944       .  S
C99         C177   1.470       .  S
C100        C150   1.479       .  S
C101        C157   1.463       .  S
C102        C162   1.474       .  S
O103        C116   1.271       .  A
O103       Co471   1.922       .  S
O104        C117   1.294       .  A
O104       Co382   2.110       .  S
O105        C118   1.284       .  A
O105       Co203   2.066       .  S
O106        C119   1.274       .  A
O106       Co654   2.046   1_455  S
O107        C119   1.246       .  A
O107       Co112   1.940       .  S
O108        C118   1.262       .  A
O108       Co201   1.964       .  S
O109        C116   1.280       .  A
O109       Co114   2.059       .  S
O110        C117   1.259       .  A
O110       Co743   1.873   1_455  S
Co111       O366   2.076       .  S
Co111       O283   1.909       .  S
Co111       O115   2.022       .  S
Co112       O182   2.071       .  S
Co112       O455   2.029   1_545  S
Co112       O374   1.974   1_545  S
Co112      O1015   2.026   1_545  S
Co113       O633   1.955       .  S
Co113       O560   1.990       .  S
Co113       O115   2.032       .  S
Co114       O184   1.942       .  S
Co114       O727   1.951       .  S
Co114       O646   2.047       .  S
Co114       O475   2.017   1_545  S
O115       Co832   2.035       .  S
O115       Co294   2.030       .  S
C116        C170   1.469       .  S
C117        C173   1.456       .  S
C118        C165   1.488       .  S
C119        C154   1.477       .  S
O120        C128   1.262       .  A
O120       Co140   1.962       .  S
O121        C129   1.244       .  A
O121       Co141   1.941       .  S
O122        C130   1.267       .  A
O122       Co142   2.009       .  S
O123        C131   1.282       .  A
O123       Co143   2.063       .  S
O124        C130   1.260       .  A
O124       Co141   1.945       .  S
O125        C131   1.274       .  A
O125       Co140   1.917       .  S
O126        C129   1.270       .  A
O126       Co143   2.041       .  S
O127        C128   1.283       .  A
O127       Co142   2.063       .  S
C128        C166   1.488       .  S
C129        C153   1.474       .  S
C130        C174   1.466       .  S
C131        C169   1.468       .  S
O132        C145   1.285       .  A
O132       Co140   2.070       .  S
O133        C146   1.265       .  A
O133       Co141   2.004       .  S
O134        C147   1.246       .  A
O134       Co142   1.937       .  S
O135        C148   1.260       .  A
O135       Co143   1.955       .  S
O136        C148   1.286       .  A
O136       Co141   2.064       .  S
O137        C147   1.270       .  A
O137       Co140   2.041       .  S
O138        C145   1.270       .  A
O138       Co143   1.925       .  S
O139        C146   1.260       .  A
O139       Co142   1.957       .  S
Co140       O144   2.026       .  S
Co141       O144   2.020       .  S
Co142       O144   2.026       .  S
Co143       O144   2.017       .  S
C145        C161   1.477       .  S
C146        C158   1.469       .  S
C147        C178   1.472       .  S
C148        C149   1.480       .  S
C149        C150   1.345       .  D
C149        H151   1.085       .  S
C150        H152   1.086       .  S
C153        C154   1.364       .  D
C153        H155   1.086       .  S
C154        H156   1.086       .  S
C157        C158   1.341       .  D
C157        H159   1.087       .  S
C158        H160   1.085       .  S
C161        C162   1.336       .  D
C161        H163   1.087       .  S
C162        H164   1.086       .  S
C165        C166   1.350       .  D
C165        H167   1.085       .  S
C166        H168   1.085       .  S
C169        C170   1.330       .  D
C169        H171   1.087       .  S
C170        H172   1.088       .  S
C173        C174   1.340       .  D
C173        H175   1.088       .  S
C174        H176   1.086       .  S
C177        C178   1.359       .  D
C177        H179   1.087       .  S
C178        H180   1.087       .  S
O181        C189   1.265       .  A
O181       Co201   2.031       .  S
O182        C190   1.284       .  A
O183        C191   1.298       .  A
O183       Co743   2.109   1_455  S
O184        C192   1.275       .  A
O185        C191   1.263       .  A
O185       Co382   1.869       .  S
O186        C192   1.280       .  A
O186       Co471   2.064       .  S
O187        C190   1.264       .  A
O187       Co654   1.970   1_455  S
O188        C189   1.247       .  A
O188       Co203   1.944       .  S
C189        C267   1.470       .  S
C190        C240   1.500       .  S
C191        C247   1.457       .  S
C192        C252   1.484       .  S
O193        C206   1.267       .  A
O193       Co291   1.918       .  S
O194        C207   1.276       .  A
O194       Co472   1.996       .  S
O195        C208   1.279       .  A
O196        C209   1.268       .  A
O196       Co744   2.041   1_556  S
O197        C209   1.244       .  A
O197       Co202   1.938       .  S
O198        C208   1.268       .  A
O199        C206   1.291       .  A
O199       Co204   2.101   1_556  S
O200        C207   1.274       .  A
O200       Co563   2.012   1_456  S
Co201       O456   2.068       .  S
Co201       O373   1.907       .  S
Co201       O205   2.015       .  S
Co202       O275   2.001   1_546  S
Co202       O464   1.976   1_545  S
Co202       O835   2.023   1_545  S
Co203       O723   1.959       .  S
Co203       O650   1.994       .  S
Co203       O205   2.027       .  S
Co204       O547   1.978       .  S
Co204       O736   2.033   1_554  S
Co204       O295   2.036   1_544  S
O205       Co922   2.028       .  S
O205       Co384   2.048       .  S
C206        C260   1.494       .  S
C207        C263   1.486       .  S
C208        C255   1.486       .  S
C209        C244   1.472       .  S
O210        C218   1.271       .  A
O210       Co230   1.962       .  S
O211        C219   1.248       .  A
O211       Co231   1.942       .  S
O212        C220   1.270       .  A
O212       Co232   2.022       .  S
O213        C221   1.291       .  A
O213       Co233   2.091       .  S
O214        C220   1.268       .  A
O214       Co231   1.980       .  S
O215        C221   1.270       .  A
O215       Co230   1.923       .  S
O216        C219   1.275       .  A
O216       Co233   2.040       .  S
O217        C218   1.283       .  A
O217       Co232   2.046       .  S
C218        C256   1.486       .  S
C219        C243   1.474       .  S
C220        C264   1.491       .  S
C221        C259   1.495       .  S
O222        C235   1.283       .  A
O222       Co230   2.073       .  S
O223        C236   1.264       .  A
O223       Co231   2.008       .  S
O224        C237   1.250       .  A
O224       Co232   1.950       .  S
O225        C238   1.264       .  A
O225       Co233   1.973       .  S
O226        C238   1.283       .  A
O226       Co231   2.069       .  S
O227        C237   1.265       .  A
O227       Co230   2.021       .  S
O228        C235   1.276       .  A
O228       Co233   1.934       .  S
O229        C236   1.258       .  A
O229       Co232   1.952       .  S
Co230       O234   2.033       .  S
Co231       O234   2.054       .  S
Co232       O234   2.015       .  S
Co233       O234   2.038       .  S
C235        C251   1.485       .  S
C236        C248   1.468       .  S
C237        C268   1.467       .  S
C238        C239   1.500       .  S
C239        C240   1.352       .  D
C239        H241   1.085       .  S
C240        H242   1.085       .  S
C243        C244   1.361       .  D
C243        H245   1.087       .  S
C244        H246   1.087       .  S
C247        C248   1.340       .  D
C247        H249   1.088       .  S
C248        H250   1.086       .  S
C251        C252   1.334       .  D
C251        H253   1.087       .  S
C252        H254   1.087       .  S
C255        C256   1.353       .  D
C255        H257   1.086       .  S
C256        H258   1.086       .  S
C259        C260   1.358       .  D
C259        H261   1.087       .  S
C260        H262   1.087       .  S
C263        C264   1.347       .  D
C263        H265   1.088       .  S
C264        H266   1.087       .  S
C267        C268   1.354       .  D
C267        H269   1.088       .  S
C268        H270   1.088       .  S
O271        C279   1.265       .  A
O271       Co291   2.026   1_564  S
O272        C280   1.298       .  A
O272       Co472   2.115   1_554  S
O273        C281   1.263       .  A
O273       Co833   1.967       .  S
O274        C282   1.263       .  A
O274       Co474   1.894       .  S
O275        C281   1.266       .  A
O276        C282   1.287       .  A
O277        C280   1.263       .  A
O277      Co1014   1.877       .  S
O278        C279   1.255       .  A
O278       Co293   1.956       .  S
C279        C357   1.478       .  S
C280        C330   1.465       .  S
C281        C337   1.473       .  S
C282        C342   1.450       .  S
O283        C296   1.268       .  A
O284        C297   1.265       .  A
O285        C298   1.265       .  A
O285       Co383   2.028       .  S
O286        C299   1.258       .  A
O286       Co834   1.983   1_455  S
O287        C299   1.263       .  A
O287       Co292   2.012       .  S
O288        C298   1.250       .  A
O288       Co381   1.956   1_565  S
O289        C296   1.284       .  A
O289       Co294   2.052       .  S
O290        C297   1.260       .  A
O290       Co923   1.972       .  S
Co291       O468   1.951   1_545  S
Co291       O295   2.002   1_545  S
Co292       O362   1.969       .  S
Co292       O655   2.004   1_455  S
Co293       O813   1.948       .  S
Co293       O465   2.019   1_554  S
Co293      O1010   2.016   1_554  S
Co293       O295   2.028   1_554  S
Co294       O364   1.940       .  S
Co294       O907   1.949       .  S
Co294       O826   2.053       .  S
O295       Co742   2.017   1_565  S
C296        C350   1.450       .  S
C297        C353   1.445       .  S
C298        C345   1.476       .  S
C299        C334   1.472       .  S
O300        C308   1.255       .  A
O300       Co320   1.961       .  S
O301        C309   1.268       .  A
O301       Co321   1.975       .  S
O302        C310   1.289       .  A
O302       Co322   2.088       .  S
O303        C311   1.267       .  A
O303       Co323   2.004       .  S
O304        C310   1.267       .  A
O304       Co321   1.875       .  S
O305        C311   1.262       .  A
O305       Co320   1.950       .  S
O306        C309   1.278       .  A
O306       Co323   2.030       .  S
O307        C308   1.268       .  A
O307       Co322   2.023       .  S
C308        C346   1.475       .  S
C309        C333   1.476       .  S
C310        C354   1.452       .  S
C311        C349   1.462       .  S
O312        C325   1.268       .  A
O312       Co320   2.000       .  S
O313        C326   1.293       .  A
O313       Co321   2.101       .  S
O314        C327   1.266       .  A
O314       Co322   1.960       .  S
O315        C328   1.257       .  A
O315       Co323   1.958       .  S
O316        C328   1.263       .  A
O316       Co321   2.007       .  S
O317        C327   1.279       .  A
O317       Co320   2.031       .  S
O318        C325   1.262       .  A
O318       Co323   1.950       .  S
O319        C326   1.270       .  A
O319       Co322   1.895       .  S
Co320       O324   2.016       .  S
Co321       O324   1.980       .  S
Co322       O324   2.001       .  S
Co323       O324   2.027       .  S
C325        C341   1.456       .  S
C326        C338   1.467       .  S
C327        C358   1.472       .  S
C328        C329   1.463       .  S
C329        C330   1.343       .  D
C329        H331   1.087       .  S
C330        H332   1.088       .  S
C333        C334   1.345       .  D
C333        H335   1.087       .  S
C334        H336   1.087       .  S
C337        C338   1.340       .  D
C337        H339   1.086       .  S
C338        H340   1.086       .  S
C341        C342   1.335       .  D
C341        H343   1.086       .  S
C342        H344   1.087       .  S
C345        C346   1.354       .  D
C345        H347   1.087       .  S
C346        H348   1.087       .  S
C349        C350   1.334       .  D
C349        H351   1.086       .  S
C350        H352   1.087       .  S
C353        C354   1.330       .  D
C353        H355   1.087       .  S
C354        H356   1.089       .  S
C357        C358   1.350       .  D
C357        H359   1.088       .  S
C358        H360   1.089       .  S
O361        C369   1.287       .  A
O361       Co381   2.062   1_565  S
O362        C370   1.270       .  A
O363        C371   1.266       .  A
O363       Co923   1.975       .  S
O364        C372   1.271       .  A
O365        C371   1.262       .  A
O366        C372   1.285       .  A
O367        C370   1.274       .  A
O367       Co834   2.011   1_455  S
O368        C369   1.254       .  A
O368       Co383   1.935       .  S
C369        C447   1.468       .  S
C370        C420   1.471       .  S
C371        C427   1.457       .  S
C372        C432   1.483       .  S
O373        C386   1.266       .  A
O374        C387   1.259       .  A
O375        C388   1.280       .  A
O375       Co473   2.028       .  S
O376        C389   1.252       .  A
O376       Co924   1.956   1_455  S
O377        C389   1.255       .  A
O377       Co382   1.986       .  S
O378        C388   1.263       .  A
O378       Co471   1.953   1_565  S
O379        C386   1.288       .  A
O379       Co384   2.085       .  S
O380        C387   1.266       .  A
O380      Co1013   2.018       .  S
Co381       O385   2.025       .  S
Co382       O452   1.971       .  S
Co382       O745   2.003   1_455  S
Co383       O903   1.903       .  S
Co383       O830   2.072       .  S
Co383       O385   2.010   1_565  S
Co384       O454   1.931       .  S
Co384       O997   1.970       .  S
Co384       O916   2.041       .  S
O385       Co562   2.018   1_545  S
C386        C440   1.473       .  S
C387        C443   1.477       .  S
C388        C435   1.465       .  S
C389        C424   1.453       .  S
O390        C398   1.260       .  A
O390       Co410   2.032       .  S
O391        C399   1.266       .  A
O391       Co411   2.003       .  S
O392        C400   1.259       .  A
O392       Co412   1.953       .  S
O393        C401   1.252       .  A
O393       Co413   1.944       .  S
O394        C400   1.280       .  A
O394       Co411   2.046       .  S
O395        C401   1.273       .  A
O395       Co410   2.042       .  S
O396        C399   1.258       .  A
O396       Co413   1.944       .  S
O397        C398   1.236       .  A
O397       Co412   1.934       .  S
C398        C436   1.456       .  S
C399        C423   1.457       .  S
C400        C444   1.474       .  S
C401        C439   1.482       .  S
O402        C415   1.266       .  A
O402       Co410   1.971       .  S
O403        C416   1.268       .  A
O403       Co411   2.007       .  S
O404        C417   1.290       .  A
O404       Co412   2.059       .  S
O405        C418   1.269       .  A
O405       Co413   2.014       .  S
O406        C418   1.266       .  A
O406       Co411   1.968       .  S
O407        C417   1.279       .  A
O407       Co410   1.904       .  S
O408        C415   1.281       .  A
O408       Co413   2.046       .  S
O409        C416   1.246       .  A
O409       Co412   1.951       .  S
Co410       O414   1.989       .  S
Co411       O414   2.074       .  S
Co412       O414   2.031       .  S
Co413       O414   2.014       .  S
C415        C431   1.490       .  S
C416        C428   1.453       .  S
C417        C448   1.464       .  S
C418        C419   1.476       .  S
C419        C420   1.343       .  D
C419        H421   1.087       .  S
C420        H422   1.086       .  S
C423        C424   1.341       .  D
C423        H425   1.086       .  S
C424        H426   1.086       .  S
C427        C428   1.326       .  D
C427        H429   1.088       .  S
C428        H430   1.087       .  S
C431        C432   1.349       .  D
C431        H433   1.086       .  S
C432        H434   1.086       .  S
C435        C436   1.342       .  D
C435        H437   1.088       .  S
C436        H438   1.086       .  S
C439        C440   1.355       .  D
C439        H441   1.084       .  S
C440        H442   1.086       .  S
C443        C444   1.345       .  D
C443        H445   1.087       .  S
C444        H446   1.085       .  S
C447        C448   1.329       .  D
C447        H449   1.088       .  S
C448        H450   1.086       .  S
O451        C459   1.266       .  A
O451       Co471   2.036   1_565  S
O452        C460   1.273       .  A
O453        C461   1.258       .  A
O453      Co1013   1.963       .  S
O454        C462   1.274       .  A
O455        C461   1.273       .  A
O456        C462   1.282       .  A
O457        C460   1.274       .  A
O457       Co924   2.003   1_455  S
O458        C459   1.252       .  A
O458       Co473   1.944       .  S
C459        C537   1.475       .  S
C460        C510   1.460       .  S
C461        C517   1.475       .  S
C462        C522   1.475       .  S
O463        C476   1.274       .  A
O464        C477   1.260       .  A
O465        C478   1.276       .  A
O466        C479   1.298       .  A
O466      Co1014   2.109   1_556  S
O467        C479   1.265       .  A
O467       Co472   1.865       .  S
O468        C478   1.270       .  A
O469        C476   1.292       .  A
O469       Co474   2.094   1_556  S
O470        C477   1.270       .  A
O470       Co833   2.024   1_556  S
Co471       O475   2.023   1_545  S
Co472       O565   2.002   1_456  S
Co473       O993   1.954       .  S
Co473       O920   2.005       .  S
Co473       O475   2.004       .  S
Co474       O817   1.961       .  S
Co474      O1006   2.017   1_554  S
O475       Co652   2.020   1_565  S
C476        C530   1.492       .  S
C477        C533   1.480       .  S
C478        C525   1.462       .  S
C479        C514   1.452       .  S
O480        C488   1.295       .  A
O480       Co500   2.083       .  S
O481        C489   1.271       .  A
O481       Co501   2.018       .  S
O482        C490   1.264       .  A
O482       Co502   1.972       .  S
O483        C491   1.245       .  A
O483       Co503   1.950       .  S
O484        C490   1.279       .  A
O484       Co501   2.042       .  S
O485        C491   1.266       .  A
O485       Co500   2.055       .  S
O486        C489   1.259       .  A
O486       Co503   1.941       .  S
O487        C488   1.263       .  A
O487       Co502   1.883       .  S
C488        C526   1.459       .  S
C489        C513   1.465       .  S
C490        C534   1.481       .  S
C491        C529   1.496       .  S
O492        C505   1.256       .  A
O492       Co500   1.946       .  S
O493        C506   1.254       .  A
O493       Co501   1.975       .  S
O494        C507   1.290       .  A
O494       Co502   2.096       .  S
O495        C508   1.264       .  A
O495       Co503   2.004       .  S
O496        C508   1.261       .  A
O496       Co501   1.956       .  S
O497        C507   1.264       .  A
O497       Co500   1.887       .  S
O498        C505   1.286       .  A
O498       Co503   2.065       .  S
O499        C506   1.265       .  A
O499       Co502   2.022       .  S
Co500       O504   2.014       .  S
Co501       O504   2.033       .  S
Co502       O504   2.002       .  S
Co503       O504   2.027       .  S
C505        C521   1.475       .  S
C506        C518   1.476       .  S
C507        C538   1.462       .  S
C508        C509   1.469       .  S
C509        C510   1.340       .  D
C509        H511   1.086       .  S
C510        H512   1.087       .  S
C513        C514   1.341       .  D
C513        H515   1.087       .  S
C514        H516   1.088       .  S
C517        C518   1.338       .  D
C517        H519   1.086       .  S
C518        H520   1.087       .  S
C521        C522   1.335       .  D
C521        H523   1.089       .  S
C522        H524   1.087       .  S
C525        C526   1.338       .  D
C525        H527   1.087       .  S
C526        H528   1.088       .  S
C529        C530   1.362       .  D
C529        H531   1.085       .  S
C530        H532   1.087       .  S
C533        C534   1.344       .  D
C533        H535   1.085       .  S
C534        H536   1.085       .  S
C537        C538   1.349       .  D
C537        H539   1.085       .  S
C538        H540   1.087       .  S
O541        C549   1.274       .  A
O541       Co561   2.043   1_554  S
O542        C550   1.275       .  A
O542       Co742   2.018   1_554  S
O543        C551   1.261       .  A
O544        C552   1.269       .  A
O544       Co744   1.926   1_655  S
O545        C551   1.263       .  A
O545      Co1012   1.999   1_554  S
O546        C552   1.291       .  A
O546       Co831   2.087   1_554  S
O547        C550   1.269       .  A
O548        C549   1.252       .  A
O548       Co563   1.934       .  S
C549        C627   1.470       .  S
C550        C600   1.477       .  S
C551        C607   1.468       .  S
C552        C612   1.487       .  S
O553        C566   1.268       .  A
O553       Co921   1.916       .  S
O554        C567   1.268       .  A
O554       Co832   1.977       .  S
O555        C568   1.264       .  A
O555       Co653   1.965   1_655  S
O556        C569   1.284       .  A
O557        C569   1.256       .  A
O557       Co562   1.942   1_545  S
O558        C568   1.281       .  A
O558       Co651   2.039       .  S
O559        C566   1.288       .  A
O559       Co564   2.075       .  S
O560        C567   1.265       .  A
Co561       O816   2.028   1_556  S
Co561      O1003   1.964       .  S
Co561       O738   1.940       .  S
Co561       O565   2.037   1_556  S
Co562       O632   2.034   1_565  S
Co562       O905   2.078       .  S
Co562       O824   1.910       .  S
Co563       O735   2.032   1_554  S
Co563       O565   2.026       .  S
Co564       O634   1.928       .  S
Co564       O925   2.016   1_645  S
O565      Co1014   1.992   1_655  S
C566        C620   1.473       .  S
C567        C623   1.469       .  S
C568        C615   1.475       .  S
C569        C604   1.459       .  S
O570        C578   1.256       .  A
O570       Co590   1.974       .  S
O571        C579   1.257       .  A
O571       Co591   1.941       .  S
O572        C580   1.284       .  A
O572       Co592   2.079       .  S
O573        C581   1.264       .  A
O573       Co593   2.000       .  S
O574        C580   1.265       .  A
O574       Co591   1.918       .  S
O575        C581   1.264       .  A
O575       Co590   1.976       .  S
O576        C579   1.284       .  A
O576       Co593   2.046       .  S
O577        C578   1.267       .  A
O577       Co592   2.024       .  S
C578        C616   1.469       .  S
C579        C603   1.458       .  S
C580        C624   1.469       .  S
C581        C619   1.475       .  S
O582        C595   1.273       .  A
O582       Co590   2.016       .  S
O583        C596   1.293       .  A
O583       Co591   2.086       .  S
O584        C597   1.260       .  A
O584       Co592   1.940       .  S
O585        C598   1.258       .  A
O585       Co593   1.963       .  S
O586        C598   1.266       .  A
O586       Co591   2.029       .  S
O587        C597   1.280       .  A
O587       Co590   2.033       .  S
O588        C595   1.272       .  A
O588       Co593   1.987       .  S
O589        C596   1.268       .  A
O589       Co592   1.903       .  S
Co590       O594   2.021       .  S
Co591       O594   2.017       .  S
Co592       O594   2.019       .  S
Co593       O594   2.040       .  S
C595        C611   1.486       .  S
C596        C608   1.470       .  S
C597        C628   1.462       .  S
C598        C599   1.486       .  S
C599        C600   1.349       .  D
C599        H601   1.087       .  S
C600        H602   1.088       .  S
C603        C604   1.333       .  D
C603        H605   1.087       .  S
C604        H606   1.087       .  S
C607        C608   1.342       .  D
C607        H609   1.086       .  S
C608        H610   1.088       .  S
C611        C612   1.345       .  D
C611        H613   1.087       .  S
C612        H614   1.088       .  S
C615        C616   1.338       .  D
C615        H617   1.088       .  S
C616        H618   1.087       .  S
C619        C620   1.339       .  D
C619        H621   1.087       .  S
C620        H622   1.088       .  S
C623        C624   1.337       .  D
C623        H625   1.086       .  S
C624        H626   1.087       .  S
C627        C628   1.352       .  D
C627        H629   1.088       .  S
C628        H630   1.088       .  S
O631        C639   1.255       .  A
O631       Co651   1.990       .  S
O632        C640   1.267       .  A
O633        C641   1.260       .  A
O634        C642   1.276       .  A
O635        C641   1.264       .  A
O635       Co832   1.995       .  S
O636        C642   1.283       .  A
O636       Co921   2.063       .  S
O637        C640   1.257       .  A
O638        C639   1.255       .  A
O638       Co653   2.000   1_655  S
C639        C717   1.471       .  S
C640        C690   1.488       .  S
C641        C697   1.465       .  S
C642        C702   1.478       .  S
O643        C656   1.265       .  A
O643      Co1011   1.917   1_545  S
O644        C657   1.262       .  A
O644       Co922   1.964       .  S
O645        C658   1.263       .  A
O645       Co743   1.960       .  S
O646        C659   1.274       .  A
O647        C659   1.249       .  A
O647       Co652   1.939       .  S
O648        C658   1.277       .  A
O648       Co741   2.023       .  S
O649        C656   1.291       .  A
O649       Co654   2.091       .  S
O650        C657   1.265       .  A
Co651       O906   1.943       .  S
Co651       O823   2.031       .  S
Co651       O655   2.041       .  S
Co652       O722   2.045       .  S
Co652       O995   2.003   1_545  S
Co652       O914   1.962   1_545  S
Co653       O655   1.979   1_455  S
Co654       O724   1.923       .  S
Co654      O1015   2.035   1_645  S
O655       Co834   2.009       .  S
C656        C710   1.485       .  S
C657        C713   1.466       .  S
C658        C705   1.460       .  S
C659        C694   1.474       .  S
O660        C668   1.265       .  A
O660       Co680   1.954       .  S
O661        C669   1.252       .  A
O661       Co681   1.947       .  S
O662        C670   1.265       .  A
O662       Co682   2.010       .  S
O663        C671   1.292       .  A
O663       Co683   2.107       .  S
O664        C670   1.261       .  A
O664       Co681   1.959       .  S
O665        C671   1.262       .  A
O665       Co680   1.905       .  S
O666        C669   1.276       .  A
O666       Co683   2.034       .  S
O667        C668   1.282       .  A
O667       Co682   2.030       .  S
C668        C706   1.463       .  S
C669        C693   1.472       .  S
C670        C714   1.468       .  S
C671        C709   1.484       .  S
O672        C685   1.289       .  A
O672       Co680   2.082       .  S
O673        C686   1.272       .  A
O673       Co681   2.010       .  S
O674        C687   1.256       .  A
O674       Co682   1.973       .  S
O675        C688   1.270       .  A
O675       Co683   1.981       .  S
O676        C688   1.275       .  A
O676       Co681   2.018       .  S
O677        C687   1.264       .  A
O677       Co680   2.021       .  S
O678        C685   1.279       .  A
O678       Co683   1.912       .  S
O679        C686   1.266       .  A
O679       Co682   1.956       .  S
Co680       O684   1.988       .  S
Co681       O684   2.008       .  S
Co682       O684   2.027       .  S
Co683       O684   2.031       .  S
C685        C701   1.479       .  S
C686        C698   1.463       .  S
C687        C718   1.474       .  S
C688        C689   1.478       .  S
C689        C690   1.351       .  D
C689        H691   1.087       .  S
C690        H692   1.086       .  S
C693        C694   1.361       .  D
C693        H695   1.087       .  S
C694        H696   1.086       .  S
C697        C698   1.343       .  D
C697        H699   1.085       .  S
C698        H700   1.086       .  S
C701        C702   1.332       .  D
C701        H703   1.086       .  S
C702        H704   1.087       .  S
C705        C706   1.337       .  D
C705        H707   1.088       .  S
C706        H708   1.088       .  S
C709        C710   1.350       .  D
C709        H711   1.087       .  S
C710        H712   1.087       .  S
C713        C714   1.342       .  D
C713        H715   1.086       .  S
C714        H716   1.086       .  S
C717        C718   1.342       .  D
C717        H719   1.088       .  S
C718        H720   1.087       .  S
O721        C729   1.261       .  A
O721       Co741   1.997       .  S
O722        C730   1.281       .  A
O723        C731   1.262       .  A
O724        C732   1.276       .  A
O725        C731   1.267       .  A
O725       Co922   2.007       .  S
O726        C732   1.285       .  A
O726      Co1011   2.069   1_545  S
O727        C730   1.259       .  A
O728        C729   1.259       .  A
O728       Co743   1.994       .  S
C729        C807   1.470       .  S
C730        C780   1.467       .  S
C731        C787   1.473       .  S
C732        C792   1.479       .  S
O733        C746   1.275       .  A
O733       Co831   1.928       .  S
O734        C747   1.263       .  A
O734      Co1012   1.957       .  S
O735        C748   1.273       .  A
O736        C749   1.274       .  A
O737        C749   1.251       .  A
O737       Co742   1.946       .  S
O738        C748   1.251       .  A
O739        C746   1.282       .  A
O739       Co744   2.061   1_656  S
O740        C747   1.271       .  A
Co741       O996   1.952       .  S
Co741       O913   2.044       .  S
Co741       O745   2.036       .  S
Co742       O815   2.023   1_546  S
Co742      O1004   1.952   1_545  S
Co743       O745   1.977       .  S
Co744       O835   2.024   1_544  S
O745       Co924   2.002       .  S
C746        C800   1.472       .  S
C747        C803   1.472       .  S
C748        C795   1.451       .  S
C749        C784   1.470       .  S
O750        C758   1.260       .  A
O750       Co770   1.949       .  S
O751        C759   1.248       .  A
O751       Co771   1.939       .  S
O752        C760   1.268       .  A
O752       Co772   2.009       .  S
O753        C761   1.281       .  A
O753       Co773   2.072       .  S
O754        C760   1.260       .  A
O754       Co771   1.963       .  S
O755        C761   1.269       .  A
O755       Co770   1.921       .  S
O756        C759   1.273       .  A
O756       Co773   2.042       .  S
O757        C758   1.283       .  A
O757       Co772   2.030       .  S
C758        C796   1.459       .  S
C759        C783   1.472       .  S
C760        C804   1.471       .  S
C761        C799   1.476       .  S
O762        C775   1.282       .  A
O762       Co770   2.066       .  S
O763        C776   1.269       .  A
O763       Co771   2.002       .  S
O764        C777   1.257       .  A
O764       Co772   1.967       .  S
O765        C778   1.259       .  A
O765       Co773   1.952       .  S
O766        C778   1.281       .  A
O766       Co771   2.044       .  S
O767        C777   1.267       .  A
O767       Co770   2.031       .  S
O768        C775   1.275       .  A
O768       Co773   1.931       .  S
O769        C776   1.265       .  A
O769       Co772   1.967       .  S
Co770       O774   2.006       .  S
Co771       O774   2.008       .  S
Co772       O774   2.019       .  S
Co773       O774   2.021       .  S
C775        C791   1.478       .  S
C776        C788   1.468       .  S
C777        C808   1.473       .  S
C778        C779   1.468       .  S
C779        C780   1.344       .  D
C779        H781   1.087       .  S
C780        H782   1.088       .  S
C783        C784   1.360       .  D
C783        H785   1.087       .  S
C784        H786   1.087       .  S
C787        C788   1.345       .  D
C787        H789   1.085       .  S
C788        H790   1.086       .  S
C791        C792   1.333       .  D
C791        H793   1.087       .  S
C792        H794   1.087       .  S
C795        C796   1.337       .  D
C795        H797   1.089       .  S
C796        H798   1.088       .  S
C799        C800   1.333       .  D
C799        H801   1.087       .  S
C800        H802   1.088       .  S
C803        C804   1.346       .  D
C803        H805   1.086       .  S
C804        H806   1.086       .  S
C807        C808   1.342       .  D
C807        H809   1.088       .  S
C808        H810   1.086       .  S
O811        C819   1.274       .  A
O811       Co831   2.042   1_564  S
O812        C820   1.286       .  A
O812      Co1012   2.074   1_554  S
O813        C821   1.261       .  A
O814        C822   1.268       .  A
O814      Co1014   1.981   1_655  S
O815        C821   1.273       .  A
O816        C822   1.275       .  A
O817        C820   1.259       .  A
O818        C819   1.251       .  A
O818       Co833   1.950   1_655  S
C819        C897   1.481       .  S
C820        C870   1.489       .  S
C821        C877   1.466       .  S
C822        C882   1.480       .  S
O823        C836   1.268       .  A
O824        C837   1.266       .  A
O825        C838   1.290       .  A
O825       Co923   2.080   1_655  S
O826        C839   1.273       .  A
O827        C839   1.248       .  A
O827       Co832   1.953       .  S
O828        C838   1.261       .  A
O828       Co921   1.946   1_565  S
O829        C836   1.253       .  A
O829       Co834   1.940       .  S
O830        C837   1.287       .  A
Co831      O1008   1.966   1_545  S
Co831       O835   2.030   1_645  S
Co832       O902   2.077       .  S
Co833      O1005   2.063   1_454  S
Co833       O835   2.039   1_554  S
Co834       O904   2.048       .  S
C836        C890   1.469       .  S
C837        C893   1.465       .  S
C838        C885   1.484       .  S
C839        C874   1.492       .  S
O840        C848   1.259       .  A
O840       Co860   1.969       .  S
O841        C849   1.247       .  A
O841       Co861   1.958       .  S
O842        C850   1.264       .  A
O842       Co862   1.988       .  S
O843        C851   1.289       .  A
O843       Co863   2.072       .  S
O844        C850   1.265       .  A
O844       Co861   1.969       .  S
O845        C851   1.265       .  A
O845       Co860   1.895       .  S
O846        C849   1.271       .  A
O846       Co863   2.045       .  S
O847        C848   1.283       .  A
O847       Co862   2.060       .  S
C848        C886   1.488       .  S
C849        C873   1.490       .  S
C850        C894   1.464       .  S
C851        C889   1.457       .  S
O852        C865   1.291       .  A
O852       Co860   2.087       .  S
O853        C866   1.265       .  A
O853       Co861   1.999       .  S
O854        C867   1.243       .  A
O854       Co862   1.947       .  S
O855        C868   1.256       .  A
O855       Co863   1.958       .  S
O856        C868   1.286       .  A
O856       Co861   2.075       .  S
O857        C867   1.265       .  A
O857       Co860   2.038       .  S
O858        C865   1.267       .  A
O858       Co863   1.928       .  S
O859        C866   1.258       .  A
O859       Co862   1.952       .  S
Co860       O864   2.027       .  S
Co861       O864   2.048       .  S
Co862       O864   2.040       .  S
Co863       O864   2.033       .  S
C865        C881   1.476       .  S
C866        C878   1.466       .  S
C867        C898   1.480       .  S
C868        C869   1.486       .  S
C869        C870   1.343       .  D
C869        H871   1.086       .  S
C870        H872   1.086       .  S
C873        C874   1.366       .  D
C873        H875   1.086       .  S
C874        H876   1.086       .  S
C877        C878   1.347       .  D
C877        H879   1.085       .  S
C878        H880   1.086       .  S
C881        C882   1.346       .  D
C881        H883   1.088       .  S
C882        H884   1.088       .  S
C885        C886   1.343       .  D
C885        H887   1.088       .  S
C886        H888   1.087       .  S
C889        C890   1.345       .  D
C889        H891   1.089       .  S
C890        H892   1.088       .  S
C893        C894   1.338       .  D
C893        H895   1.087       .  S
C894        H896   1.086       .  S
C897        C898   1.362       .  D
C897        H899   1.087       .  S
C898        H900   1.087       .  S
O901        C909   1.268       .  A
O901       Co921   2.037   1_565  S
O902        C910   1.289       .  A
O903        C911   1.265       .  A
O904        C912   1.279       .  A
O905        C911   1.289       .  A
O906        C912   1.261       .  A
O907        C910   1.259       .  A
O908        C909   1.247       .  A
O908       Co923   1.944   1_655  S
C909        C987   1.474       .  S
C910        C960   1.484       .  S
C911        C967   1.464       .  S
C912        C972   1.480       .  S
O913        C926   1.273       .  A
O914        C927   1.262       .  A
O915        C928   1.290       .  A
O915      Co1013   2.080   1_655  S
O916        C929   1.268       .  A
O917        C929   1.243       .  A
O917       Co922   1.937       .  S
O918        C928   1.261       .  A
O918      Co1011   1.954       .  S
O919        C926   1.253       .  A
O919       Co924   1.935       .  S
O920        C927   1.268       .  A
Co921       O925   2.008   1_645  S
Co922       O992   2.072       .  S
Co923       O925   2.019       .  S
Co924       O994   2.021       .  S
C926        C980   1.473       .  S
C927        C983   1.468       .  S
C928        C975   1.487       .  S
C929        C964   1.475       .  S
O930        C938   1.259       .  A
O930       Co950   1.961       .  S
O931        C939   1.241       .  A
O931       Co951   1.941       .  S
O932        C940   1.266       .  A
O932       Co952   2.001       .  S
O933        C941   1.287       .  A
O933       Co953   2.073       .  S
O934        C940   1.261       .  A
O934       Co951   1.958       .  S
O935        C941   1.267       .  A
O935       Co950   1.905       .  S
O936        C939   1.266       .  A
O936       Co953   2.035       .  S
O937        C938   1.286       .  A
O937       Co952   2.074       .  S
C938        C976   1.487       .  S
C939        C963   1.471       .  S
C940        C984   1.470       .  S
C941        C979   1.465       .  S
O942        C955   1.291       .  A
O942       Co950   2.089       .  S
O943        C956   1.264       .  A
O943       Co951   1.988       .  S
O944        C957   1.244       .  A
O944       Co952   1.944       .  S
O945        C958   1.257       .  A
O945       Co953   1.960       .  S
O946        C958   1.284       .  A
O946       Co951   2.070       .  S
O947        C957   1.265       .  A
O947       Co950   2.033       .  S
O948        C955   1.265       .  A
O948       Co953   1.901       .  S
O949        C956   1.263       .  A
O949       Co952   1.965       .  S
Co950       O954   2.031       .  S
Co951       O954   2.028       .  S
Co952       O954   2.032       .  S
Co953       O954   2.025       .  S
C955        C971   1.469       .  S
C956        C968   1.462       .  S
C957        C988   1.475       .  S
C958        C959   1.485       .  S
C959        C960   1.343       .  D
C959        H961   1.086       .  S
C960        H962   1.086       .  S
C963        C964   1.361       .  D
C963        H965   1.087       .  S
C964        H966   1.087       .  S
C967        C968   1.339       .  D
C967        H969   1.087       .  S
C968        H970   1.086       .  S
C971        C972   1.349       .  D
C971        H973   1.088       .  S
C972        H974   1.087       .  S
C975        C976   1.348       .  D
C975        H977   1.087       .  S
C976        H978   1.088       .  S
C979        C980   1.350       .  D
C979        H981   1.088       .  S
C980        H982   1.086       .  S
C983        C984   1.345       .  D
C983        H985   1.086       .  S
C984        H986   1.086       .  S
C987        C988   1.358       .  D
C987        H989   1.088       .  S
C988        H990   1.088       .  S
O991        C999   1.265       .  A
O991      Co1011   2.034       .  S
O992       C1000   1.285       .  A
O993       C1001   1.261       .  A
O994       C1002   1.272       .  A
O995       C1001   1.268       .  A
O996       C1002   1.265       .  A
O997       C1000   1.263       .  A
O998        C999   1.243       .  A
O998      Co1013   1.940   1_655  S
C999       C1077   1.471       .  S
C1000      C1050   1.496       .  S
C1001      C1057   1.464       .  S
C1002      C1062   1.468       .  S
O1003      C1016   1.255       .  A
O1004      C1017   1.257       .  A
O1005      C1018   1.284       .  A
O1006      C1019   1.259       .  A
O1007      C1019   1.242       .  A
O1007     Co1012   1.942       .  S
O1008      C1018   1.262       .  A
O1009      C1016   1.261       .  A
O1009     Co1014   2.011   1_656  S
O1010      C1017   1.267       .  A
Co1011     O1015   2.019   1_655  S
Co1013     O1015   2.026       .  S
C1016      C1070   1.472       .  S
C1017      C1073   1.467       .  S
C1018      C1065   1.491       .  S
C1019      C1054   1.462       .  S
O1020      C1028   1.258       .  A
O1020     Co1040   1.964       .  S
O1021      C1029   1.241       .  A
O1021     Co1041   1.940       .  S
O1022      C1030   1.270       .  A
O1022     Co1042   2.014       .  S
O1023      C1031   1.293       .  A
O1023     Co1043   2.085       .  S
O1024      C1030   1.259       .  A
O1024     Co1041   1.952       .  S
O1025      C1031   1.269       .  A
O1025     Co1040   1.908       .  S
O1026      C1029   1.256       .  A
O1026     Co1043   2.015       .  S
O1027      C1028   1.281       .  A
O1027     Co1042   2.067       .  S
C1028      C1066   1.490       .  S
C1029      C1053   1.462       .  S
C1030      C1074   1.470       .  S
C1031      C1069   1.469       .  S
O1032      C1045   1.294       .  A
O1032     Co1040   2.099       .  S
O1033      C1046   1.264       .  A
O1033     Co1041   2.001       .  S
O1034      C1047   1.244       .  A
O1034     Co1042   1.940       .  S
O1035      C1048   1.264       .  A
O1035     Co1043   1.967       .  S
O1036      C1048   1.287       .  A
O1036     Co1041   2.076       .  S
O1037      C1047   1.269       .  A
O1037     Co1040   2.039       .  S
O1038      C1045   1.258       .  A
O1038     Co1043   1.880       .  S
O1039      C1046   1.258       .  A
O1039     Co1042   1.954       .  S
Co1040     O1044   2.033       .  S
Co1041     O1044   2.032       .  S
Co1042     O1044   2.031       .  S
Co1043     O1044   2.015       .  S
C1045      C1061   1.459       .  S
C1046      C1058   1.466       .  S
C1047      C1078   1.473       .  S
C1048      C1049   1.495       .  S
C1049      C1050   1.350       .  D
C1049      H1051   1.086       .  S
C1050      H1052   1.086       .  S
C1053      C1054   1.352       .  D
C1053      H1055   1.087       .  S
C1054      H1056   1.087       .  S
C1057      C1058   1.344       .  D
C1057      H1059   1.086       .  S
C1058      H1060   1.085       .  S
C1061      C1062   1.339       .  D
C1061      H1063   1.087       .  S
C1062      H1064   1.086       .  S
C1065      C1066   1.348       .  D
C1065      H1067   1.085       .  S
C1066      H1068   1.086       .  S
C1069      C1070   1.343       .  D
C1069      H1071   1.088       .  S
C1070      H1072   1.087       .  S
C1073      C1074   1.347       .  D
C1073      H1075   1.086       .  S
C1074      H1076   1.087       .  S
C1077      C1078   1.360       .  D
C1077      H1079   1.088       .  S
C1078      H1080   1.088       .  S
