geometry optimzed in LAMMPS
_audit_creation_date              2020-11-30 
_audit_creation_method            'lammps2cif' 
_symmetry_space_group_name_H-M    'P1' 
_symmetry_Int_Tables_number       1 
_symmetry_cell_setting            triclinic 
loop_ 
_symmetry_equiv_pos_as_xyz 
  x,y,z 
_cell_length_a                    31.44201269022289 
_cell_length_b                    31.731875989904324 
_cell_length_c                    31.32047921964541 
_cell_angle_alpha                 89.91962972757906 
_cell_angle_beta                  90.20620716766423 
_cell_angle_gamma                 90.50971305440244 
loop_ 
_atom_site_label 
_atom_site_type_symbol 
_atom_site_fract_x 
_atom_site_fract_y 
_atom_site_fract_z 
_atom_site_charge 
C1          C  0.71237769  0.76650823  0.77388934     0.03270
C2          C  0.73348532  0.73195382  0.79122627    -0.12880
C3          C  0.77154674  0.71778699  0.77318280     0.00770
C4          C  0.78728740  0.73768665  0.73645038    -0.11410
C5          C  0.76634970  0.77264169  0.71870148     0.03260
C6          C  0.72993098  0.78796377  0.73881210    -0.10830
H7          H  0.72003839  0.71579823  0.81852477     0.08860
H8          H  0.81552358  0.72550329  0.72122438     0.06390
H9          H  0.71452109  0.81587954  0.72677382     0.06230
C10         C  0.27582118  0.76461548  0.21153351     0.03270
C11         C  0.29122259  0.74305026  0.24724932    -0.12880
C12         C  0.26992948  0.70700236  0.26249237     0.00770
C13         C  0.23452515  0.69140628  0.24031549    -0.11410
C14         C  0.21875201  0.71286893  0.20445741     0.03260
C15         C  0.24031868  0.74856926  0.18941168    -0.10830
H16         H  0.31900212  0.75490658  0.26398697     0.08860
H17         H  0.21839962  0.66329448  0.25162945     0.06390
H18         H  0.22879873  0.76470802  0.16127156     0.06230
C19         C  0.71232610  0.71188698  0.21365963     0.03270
C20         C  0.69424666  0.73007938  0.24973079    -0.12880
C21         C  0.70934128  0.76896681  0.26496127     0.00770
C22         C  0.74386278  0.78854818  0.24483326    -0.11410
C23         C  0.76111411  0.77165210  0.20726454     0.03260
C24         C  0.74467099  0.73334786  0.19159207    -0.10830
H25         H  0.66913990  0.71346516  0.26655519     0.08860
H26         H  0.75754883  0.81671629  0.25887057     0.06390
H27         H  0.75830018  0.71914556  0.16339519     0.06230
C28         C  0.22024406  0.28691673  0.28063678     0.03270
C29         C  0.24112729  0.25616777  0.30444554    -0.12880
C30         C  0.26823627  0.22678869  0.28457013     0.00770
C31         C  0.27779103  0.23348146  0.24100468    -0.11410
C32         C  0.26243168  0.26905230  0.21912606     0.03260
C33         C  0.23276222  0.29498843  0.23871094    -0.10830
H34         H  0.23289179  0.25371617  0.33778292     0.08860
H35         H  0.29646939  0.21110634  0.22341607     0.06390
H36         H  0.21798198  0.32018978  0.22079578     0.06230
C37         C  0.71089515  0.19682853  0.22460409     0.03270
C38         C  0.70028299  0.23652905  0.24118923    -0.12880
C39         C  0.71617079  0.24972382  0.28080147     0.00770
C40         C  0.74159368  0.22202301  0.30464275    -0.11410
C41         C  0.75566459  0.18409584  0.28692573     0.03260
C42         C  0.73876576  0.17092548  0.24744848    -0.10830
H43         H  0.68085978  0.25770560  0.22238629     0.08860
H44         H  0.75404676  0.23192697  0.33534998     0.06390
H45         H  0.74844950  0.14131517  0.23391506     0.06230
C46         C  0.71652488  0.21132212  0.70828434     0.03270
C47         C  0.73492257  0.24852918  0.69242470    -0.12880
C48         C  0.77067289  0.26657482  0.71258410     0.00770
C49         C  0.78880639  0.24629881  0.74786083    -0.11410
C50         C  0.77044692  0.20917047  0.76419176     0.03260
C51         C  0.73383336  0.19244954  0.74488712    -0.10830
H52         H  0.72031008  0.26443355  0.66553805     0.08860
H53         H  0.81607273  0.26034703  0.76372699     0.06390
H54         H  0.71785713  0.16567084  0.75942326     0.06230
C55         C  0.21845931  0.71476960  0.71115522     0.03270
C56         C  0.25291988  0.69788798  0.73348410    -0.12880
C57         C  0.26971337  0.71871432  0.76941841     0.00770
C58         C  0.25006769  0.75536583  0.78425389    -0.11410
C59         C  0.21549427  0.77252412  0.76185666     0.03260
C60         C  0.19935203  0.75171039  0.72596488    -0.10830
H61         H  0.26749998  0.66919505  0.72227117     0.08860
H62         H  0.26221247  0.77117010  0.81242598     0.06390
H63         H  0.17261807  0.76490861  0.70876796     0.06230
O64         O  0.05820873  0.06101796  0.96682438    -0.88200
C65         C  0.14086631  0.04482150  0.06073007     0.87820
Mg66       Mg  0.00999572  0.10750926  0.97297439     1.58150
O67         O  0.06301749  0.96418399  0.05698865    -0.87940
O68         O  0.05932234  0.99191385  0.95955463    -0.75270
C69         C  0.94634515  0.08429562  0.17218548     0.92880
O70         O  0.09692172  0.12633616  0.03441142    -0.75080
O71         O  0.93733491  0.11283787  0.14467812    -0.82590
Mg72       Mg  0.12198017  0.08240624  0.98166737     1.57960
C73         C  0.00129730  0.92398014  0.16520753     0.92800
O74         O  0.15474777  0.03876492  0.92794043    -0.80850
H75         H  0.03254915  0.91981071  0.02307483    -0.06190
C76         C  0.04720730  0.05623828  0.14039167     0.87740
O77         O  0.96022672  0.05761815  0.99146854    -0.75360
O78         O  0.12262321  0.03414263  0.02729985    -0.88120
O79         O  0.04047668  0.92509079  0.15350787    -0.80930
C80         C  0.17264616  0.94538417  0.09062531     0.92910
C81         C  0.16701773  0.00010634  0.92748085     0.92770
Mg82       Mg  0.97290953  0.00492055  0.10742850     1.57950
O83         O  0.95755287  0.04786106  0.16088868    -0.80850
O84         O  0.99323941  0.95742935  0.05690576    -0.75100
O85         O  0.16250527  0.95629094  0.05312231    -0.80940
O86         O  0.12024207  0.14223925  0.94014497    -0.82650
O87         O  0.92796909  0.15069513  0.03916359    -0.80970
C88         C  0.03004568  0.94555400  0.04546110     0.87200
O89         O  0.96670250  0.05427148  0.06144284    -0.88110
O90         O  0.03659496  0.02342821  0.12161615    -0.88210
O91         O  0.03186252  0.09193647  0.13063028    -0.75270
Mg92       Mg  0.10938336  0.97123607  0.00842990     1.57970
O93         O  0.14438371  0.93617644  0.11853943    -0.82640
H94         H  0.02482492  0.03076087  0.92162312    -0.06370
O95         O  0.02731322  0.11932344  0.03737896    -0.87910
H96         H  0.05952953  0.16031956  0.07389579    -0.06190
H97         H  0.92163872  0.02235638  0.02944022    -0.06370
C98         C  0.06085173  0.13652331  0.04928838     0.87180
C99         C  0.04715207  0.02835520  0.94780786     0.87770
C100        C  0.94799558  0.04440686  0.02788316     0.87810
H101        H  0.07102209  0.05462239  0.16529391    -0.06350
O102        O  0.13048463  0.02976362  0.09685952    -0.75380
Mg103      Mg  0.98035635  0.11714407  0.08488719     1.58000
H104        H  0.16566388  0.06859754  0.05928765    -0.06370
C105        C  0.09297790  0.17031487  0.94999789     0.92800
O106        O  0.95835765  0.15471551  0.97487080    -0.82610
C107        C  0.92877382  0.16427186  0.00029253     0.92860
O108        O  0.15645166  0.97416375  0.95632205    -0.82590
Mg109      Mg  0.08489572  0.97799190  0.12102190     1.58180
O110        O  0.05536340  0.16038590  0.96027369    -0.80920
O111        O  0.97515505  0.95217897  0.15420898    -0.82620
C112        C  0.13848028  0.27682243  0.92318433     0.03270
C113        C  0.13431919  0.23303650  0.92642087    -0.12880
C114        C  0.10452896  0.21543109  0.95377531     0.00770
C115        C  0.08231953  0.24190015  0.98242245    -0.11410
C116        C  0.08808391  0.28597787  0.98171224     0.03260
C117        C  0.11574590  0.30324829  0.95083833    -0.10830
H118        H  0.15010134  0.21302488  0.90342886     0.08860
H119        H  0.05804329  0.22855474  0.00301142     0.06390
H120        H  0.11634668  0.33700120  0.94547093     0.06230
C121        C  0.91680050  0.11611125  0.28384603     0.03270
C122        C  0.91773988  0.11496791  0.23916413    -0.12880
C123        C  0.94933065  0.09287746  0.21842964     0.00770
C124        C  0.98216361  0.07402612  0.24285688    -0.11410
C125        C  0.98282756  0.07662438  0.28772605     0.03260
C126        C  0.94925571  0.09741526  0.30814917    -0.10830
H127        H  0.89178548  0.12825689  0.22079181     0.08860
H128        H  0.00594728  0.05511436  0.22710373     0.06390
H129        H  0.94672009  0.09647448  0.34263185     0.06230
C130        C  0.28082177  0.92195081  0.13688689     0.03270
C131        C  0.23662503  0.92198198  0.13106384    -0.12880
C132        C  0.21827241  0.94910781  0.10168206     0.00770
C133        C  0.24434046  0.97900547  0.08025556    -0.11410
C134        C  0.28854354  0.98084746  0.08731112     0.03260
C135        C  0.30662693  0.95176344  0.11588043    -0.10830
H136        H  0.21706864  0.89811032  0.14645107     0.08860
H137        H  0.23068808  0.99910311  0.05587927     0.06390
H138        H  0.34090521  0.94975181  0.11871252     0.06230
O139        O  0.01377941  0.56141029  0.41626232    -0.88200
C140        C  0.92063987  0.64356937  0.43311251     0.87820
Mg141      Mg  0.00756806  0.51336965  0.36990710     1.58150
O142        O  0.92164395  0.56332245  0.51167161    -0.87940
O143        O  0.01990283  0.56088405  0.48629495    -0.75270
C144        C  0.80486937  0.46118892  0.37787670     0.92880
O145        O  0.94910377  0.60140268  0.34778510    -0.75080
O146        O  0.83375023  0.45071510  0.35134059    -0.82590
Mg147      Mg  0.00015258  0.62457776  0.39451813     1.57960
C148        C  0.81016394  0.50105490  0.54745629     0.92800
O149        O  0.05263004  0.65643264  0.43990187    -0.80850
H150        H  0.95277775  0.52967149  0.55574677    -0.06190
C151        C  0.84123637  0.55566375  0.41555028     0.87740
O152        O  0.98420429  0.46548999  0.41930963    -0.75360
O153        O  0.95347690  0.62450183  0.44296812    -0.88120
O154        O  0.82536713  0.53890872  0.55020518    -0.80930
C155        C  0.89034677  0.67197142  0.53537759     0.92910
C156        C  0.05298805  0.66799345  0.47924278     0.92770
Mg157      Mg  0.86628878  0.47799965  0.46433144     1.57950
O158        O  0.81385708  0.46927241  0.41645156    -0.80850
O159        O  0.91615040  0.49408678  0.51592248    -0.75100
O160        O  0.92735047  0.66227233  0.52333891    -0.80940
O161        O  0.04296004  0.62232025  0.33449997    -0.82650
O162        O  0.93922125  0.43550442  0.32096009    -0.80970
C163        C  0.93068734  0.52939531  0.52923322     0.87200
O164        O  0.91447817  0.47272558  0.41730210    -0.88110
O165        O  0.85657113  0.54207668  0.44937986    -0.88210
O166        O  0.85241414  0.54195645  0.37911561    -0.75270
Mg167      Mg  0.97134092  0.60979022  0.50692013     1.57970
O168        O  0.86261691  0.64357875  0.54458685    -0.82640
H169        H  0.05866259  0.52854398  0.44668893    -0.06370
O170        O  0.94510153  0.53269699  0.35482093    -0.87910
H171        H  0.91178772  0.56401924  0.31076012    -0.06190
H172        H  0.94296852  0.42775105  0.45157246    -0.06370
C173        C  0.93486070  0.56562133  0.33638065     0.87180
C174        C  0.03240841  0.55013961  0.44930874     0.87770
C175        C  0.94673274  0.45376388  0.42954463     0.87810
H176        H  0.81821178  0.58071246  0.41698525    -0.06350
O177        O  0.88450954  0.63384974  0.44865654    -0.75380
Mg178      Mg  0.89555620  0.48921906  0.35318782     1.58000
H179        H  0.92261962  0.66886531  0.41003621    -0.06370
C180        C  0.03511588  0.59388634  0.30642448     0.92800
O181        O  0.00541485  0.46162783  0.32315199    -0.82610
C182        C  0.97896486  0.43382437  0.31110868     0.92860
O183        O  0.02430741  0.65670203  0.50530664    -0.82590
Mg184      Mg  0.85856519  0.58662548  0.49880005     1.58180
O185        O  0.02452589  0.55683825  0.31702399    -0.80920
O186        O  0.81737795  0.47793171  0.51543295    -0.82620
C187        C  0.70258226  0.42064237  0.34206117     0.03270
C188        C  0.74282086  0.43884450  0.33459999    -0.12880
C189        C  0.75966471  0.46539670  0.36534466     0.00770
C190        C  0.73153422  0.48903657  0.39069934    -0.11410
C191        C  0.68791908  0.47909950  0.39117428     0.03260
C192        C  0.67444914  0.44200107  0.36956397    -0.10830
H193        H  0.76460557  0.42369898  0.31280099     0.08860
H194        H  0.74407288  0.51158765  0.41358040     0.06390
H195        H  0.64396117  0.42831004  0.37740476     0.06230
C196        C  0.06066156  0.63715973  0.19712264     0.03270
C197        C  0.05953218  0.63272330  0.24162377    -0.12880
C198        C  0.03230561  0.60349863  0.26024355     0.00770
C199        C  0.00329485  0.58073424  0.23394011    -0.11410
C200        C  0.00238726  0.58652061  0.18935014     0.03260
C201        C  0.03165798  0.61498265  0.17112231    -0.10830
H202        H  0.08281702  0.64906882  0.26133245     0.08860
H203        H  0.98305320  0.55656172  0.24782522     0.06390
H204        H  0.03446852  0.61701153  0.13671254     0.06230
C205        C  0.84700452  0.77933614  0.56237048     0.03270
C206        C  0.85234482  0.73551087  0.56188281    -0.12880
C207        C  0.87961925  0.71725549  0.53271208     0.00770
C208        C  0.89920522  0.74310335  0.50137787    -0.11410
C209        C  0.89211360  0.78687162  0.49965882     0.03260
C210        C  0.86616167  0.80500666  0.53103181    -0.10830
H211        H  0.83802328  0.71614756  0.58661678     0.08860
H212        H  0.92154364  0.72943925  0.47917539     0.06390
H213        H  0.86334941  0.83895631  0.53295608     0.06230
O214        O  0.00802102  0.85808610  0.41062552    -0.88200
C215        C  0.97407601  0.98231641  0.40969661     0.87820
Mg216      Mg  0.02662586  0.83345766  0.46980552     1.58150
O217        O  0.07154563  0.96151145  0.36093822    -0.87940
O218        O  0.03166502  0.87348215  0.34668096    -0.75270
C219        C  0.16400075  0.97249229  0.55526717     0.92880
O220        O  0.95883823  0.91147475  0.48253618    -0.75080
O221        O  0.14303417  0.93987460  0.56757888    -0.82590
Mg222      Mg  0.94913761  0.89008351  0.41218021     1.57960
C223        C  0.17574771  0.01897582  0.38683681     0.92800
O224        O  0.94201738  0.86513255  0.33976466    -0.80850
H225        H  0.10687630  0.92603719  0.32224272    -0.06190
C226        C  0.07078589  0.00460973  0.48379923     0.87740
O227        O  0.09715948  0.84234837  0.45050584    -0.75360
O228        O  0.98452308  0.94766686  0.39479056    -0.88120
O229        O  0.14211924  0.02492195  0.36466089    -0.80930
C230        C  0.00904971  0.04658453  0.31255362     0.92910
C231        C  0.94715930  0.88856448  0.30690313     0.92770
Mg232      Mg  0.14538536  0.95967135  0.44990982     1.57950
O233        O  0.16360573  0.98417416  0.51644638    -0.80850
O234        O  0.13312765  0.93571697  0.38084211    -0.75100
O235        O  0.99398561  0.00962870  0.31625561    -0.80940
O236        O  0.91141464  0.83195739  0.43976844    -0.82650
O237        O  0.10620761  0.84099122  0.54234535    -0.80970
C238        C  0.10379278  0.94074437  0.35316407     0.87200
O239        O  0.11597455  0.90532870  0.47266894    -0.88110
O240        O  0.08685150  0.99110537  0.45038641    -0.88210
O241        O  0.06583977  0.98131128  0.51673328    -0.75270
Mg242      Mg  0.01320402  0.94341219  0.33463674     1.57970
O243        O  0.04461340  0.05688099  0.32973072    -0.82640
H244        H  0.03826006  0.81593116  0.37449648    -0.06370
O245        O  0.02488204  0.89405265  0.49712603    -0.87910
H246        H  0.98734428  0.92185017  0.54007503    -0.06190
H247        H  0.15674494  0.86665837  0.44385410    -0.06370
C248        C  0.99052814  0.90958875  0.50808776     0.87180
C249        C  0.02633953  0.84764437  0.37741420     0.87770
C250        C  0.12484645  0.87141760  0.45552713     0.87810
H251        H  0.06025793  0.03692952  0.48489159    -0.06350
O252        O  0.00004897  0.01353269  0.41126441    -0.75380
Mg253      Mg  0.08365075  0.91201991  0.53127704     1.58000
H254        H  0.94216760  0.98618313  0.42168528    -0.06370
C255        C  0.92194850  0.81367275  0.47469943     0.92800
O256        O  0.04317287  0.81277861  0.53383362    -0.82610
C257        C  0.08256088  0.80843122  0.53713982     0.92860
O258        O  0.95007731  0.92753932  0.31175262    -0.82590
Mg259      Mg  0.07058361  0.02166136  0.39007796     1.58180
O260        O  0.95938629  0.81665916  0.48958973    -0.80920
O261        O  0.17343025  0.01763881  0.42680909    -0.82620
C262        C  0.13807994  0.70584268  0.55454768     0.03270
C263        C  0.11643551  0.67932948  0.52562989    -0.12880
C264        C  0.08629128  0.69612865  0.49714420     0.00770
C265        C  0.07801190  0.73955714  0.49894983    -0.11410
C266        C  0.09943376  0.76608135  0.52842799     0.03260
C267        C  0.13092414  0.74937579  0.55433019    -0.10830
H268        H  0.12006349  0.64548498  0.52810252     0.08860
H269        H  0.05193322  0.75196826  0.48015945     0.06390
H270        H  0.14594093  0.76923671  0.57830202     0.06230
C271        C  0.27654787  0.05778552  0.34791055     0.03270
C272        C  0.23435412  0.04427737  0.34214412    -0.12880
C273        C  0.21827787  0.01274937  0.36828880     0.00770
C274        C  0.24674533  0.98569000  0.38987782    -0.11410
C275        C  0.29055531  0.99479245  0.39130192     0.03260
C276        C  0.30505813  0.03224718  0.37110948    -0.10830
H277        H  0.21211919  0.06495731  0.32608278     0.08860
H278        H  0.23407679  0.96171697  0.41115162     0.06390
H279        H  0.33694037  0.04388217  0.37755076     0.06230
C280        C  0.92317580  0.84116948  0.20050451     0.03270
C281        C  0.95175011  0.86336044  0.17419806    -0.12880
C282        C  0.98325029  0.88977176  0.19215026     0.00770
C283        C  0.98448187  0.89409824  0.23686851    -0.11410
C284        C  0.95487359  0.87257639  0.26334841     0.03260
C285        C  0.92613949  0.84445801  0.24503329    -0.10830
H286        H  0.94668001  0.86341530  0.13995048     0.08860
H287        H  0.00525440  0.91793513  0.25066552     0.06390
H288        H  0.90193301  0.82985452  0.26489296     0.06230
O289        O  0.46601613  0.42179799  0.91970623    -0.88200
C290        C  0.55905253  0.34024706  0.93296960     0.87820
Mg291      Mg  0.47166092  0.47000801  0.87273470     1.58150
O292        O  0.55909699  0.41821737  0.01308593    -0.87940
O293        O  0.46061195  0.42063317  0.98977209    -0.75270
C294        C  0.67350642  0.52983421  0.88395143     0.92880
O295        O  0.52947986  0.38314884  0.85071047    -0.75080
O296        O  0.64463468  0.53876848  0.85647275    -0.82590
Mg297      Mg  0.47859728  0.35867785  0.89757236     1.57960
C298        C  0.66975475  0.48005231  0.04912463     0.92800
O299        O  0.42670726  0.32590880  0.94413707    -0.80850
H300        H  0.52738958  0.44998405  0.05780729    -0.06190
C301        C  0.63977955  0.43160885  0.91717397     0.87740
O302        O  0.49405903  0.51852725  0.92198973    -0.75360
O303        O  0.52610899  0.35791596  0.94470280    -0.88120
O304        O  0.65625413  0.44161185  0.05017420    -0.80930
C305        C  0.59258882  0.30967301  0.03279825     0.92910
C306        C  0.42745988  0.31360669  0.98339107     0.92770
Mg307      Mg  0.61154206  0.50657626  0.96804753     1.57950
O308        O  0.66408063  0.51979135  0.92187504    -0.80850
O309        O  0.56219298  0.48749172  0.01840940    -0.75100
O310        O  0.55486339  0.31899175  0.02261837    -0.80940
O311        O  0.43456877  0.36127042  0.83853261    -0.82650
O312        O  0.53838605  0.54983117  0.82434640    -0.80970
C313        C  0.54923278  0.45148515  0.03128154     0.87200
O314        O  0.56385767  0.51253825  0.92045603    -0.88110
O315        O  0.62272263  0.44318664  0.95071561    -0.88210
O316        O  0.62885869  0.44599360  0.88089503    -0.75270
Mg317      Mg  0.50993946  0.37147036  0.00896246     1.57970
O318        O  0.62025390  0.33818945  0.04171139    -0.82640
H319        H  0.42169523  0.45427572  0.95102110    -0.06370
O320        O  0.53474033  0.45192807  0.85776933    -0.87910
H321        H  0.56805031  0.41999248  0.81446450    -0.06190
H322        H  0.53462792  0.55712554  0.95427013    -0.06370
C323        C  0.54475221  0.41875855  0.83972778     0.87180
C324        C  0.44787315  0.43250371  0.95307012     0.87770
C325        C  0.53130747  0.53098095  0.93238755     0.87810
H326        H  0.66403136  0.40771338  0.91868599    -0.06350
O327        O  0.59559795  0.35081501  0.94706579    -0.75380
Mg328      Mg  0.58362608  0.49743434  0.85639745     1.58000
H329        H  0.55677098  0.31568104  0.90917670    -0.06370
C330        C  0.44350893  0.38886964  0.80997216     0.92800
O331        O  0.47293043  0.52178642  0.82552893    -0.82610
C332        C  0.49874038  0.55028616  0.81377442     0.92860
O333        O  0.45715324  0.32427041  0.00871197    -0.82590
Mg334      Mg  0.62217637  0.39643241  0.99806340     1.58180
O335        O  0.45502664  0.42585470  0.81991616    -0.80920
O336        O  0.65987429  0.50500568  0.01926194    -0.82620
C337        C  0.41334187  0.34807241  0.70109355     0.03270
C338        C  0.41551930  0.35208518  0.74554820    -0.12880
C339        C  0.44585172  0.37829282  0.76409847     0.00770
C340        C  0.47665950  0.39839198  0.73780532    -0.11410
C341        C  0.47597202  0.39350669  0.69312786     0.03260
C342        C  0.44350082  0.36838043  0.67502451    -0.10830
H343        H  0.39078783  0.33825059  0.76530347     0.08860
H344        H  0.49914069  0.42055128  0.75175394     0.06390
H345        H  0.43916045  0.36796911  0.64067893     0.06230
C346        C  0.63491925  0.20344093  0.06241068     0.03270
C347        C  0.61405600  0.17695226  0.03291143    -0.12880
C348        C  0.58788002  0.19405923  0.00076499     0.00770
C349        C  0.58254310  0.23809630  0.99992491    -0.11410
C350        C  0.60381742  0.26467989  0.02970589     0.03260
C351        C  0.63184979  0.24719795  0.05888810    -0.10830
H352        H  0.61466321  0.14313069  0.03774625     0.08860
H353        H  0.55928452  0.25131763  0.97820501     0.06390
H354        H  0.64700689  0.26723583  0.08261490     0.06230
C355        C  0.78158627  0.55745857  0.83997164     0.03270
C356        C  0.73730602  0.55515001  0.84425104    -0.12880
C357        C  0.71902471  0.52652497  0.87240295     0.00770
C358        C  0.74537120  0.49681090  0.89348873    -0.11410
C359        C  0.78986076  0.49715901  0.88793415     0.03260
C360        C  0.80772292  0.52850682  0.86137507    -0.10830
H361        H  0.71755063  0.57889395  0.82933043     0.08860
H362        H  0.73165605  0.47553833  0.91689388     0.06390
H363        H  0.84193329  0.53292580  0.86057880     0.06230
O364        O  0.01664947  0.42268708  0.05914099    -0.88200
C365        C  0.92177719  0.34138328  0.04493603     0.87820
Mg366      Mg  0.01106171  0.47164421  0.10525483     1.58150
O367        O  0.92561704  0.41632305  0.96174334    -0.87940
O368        O  0.02312518  0.42006459  0.98912298    -0.75270
C369        C  0.81374926  0.53545495  0.08281597     0.92880
O370        O  0.94941621  0.38596111  0.12664617    -0.75080
O371        O  0.84215792  0.54491053  0.11065225    -0.82590
Mg372      Mg  0.00132591  0.36001942  0.08222601     1.57960
C373        C  0.81734255  0.47850984  0.92160554     0.92800
O374        O  0.05402533  0.32613180  0.03844507    -0.80850
H375        H  0.95938672  0.44549325  0.91628434    -0.06190
C376        C  0.84296277  0.43476496  0.05484233     0.87740
O377        O  0.99278290  0.51992912  0.05418859    -0.75360
O378        O  0.95537283  0.35867215  0.03361630    -0.88120
O379        O  0.82825091  0.43939779  0.92248524    -0.80930
C380        C  0.89131451  0.30678710  0.94554338     0.92910
C381        C  0.05426642  0.31318440  0.99946579     0.92770
Mg382      Mg  0.87669876  0.50713340  0.00217589     1.57950
O383        O  0.82368250  0.52363824  0.04568941    -0.80850
O384        O  0.92631281  0.48537284  0.95400008    -0.75100
O385        O  0.92882778  0.31715772  0.95600565    -0.80940
O386        O  0.04336384  0.36301855  0.14256282    -0.82650
O387        O  0.94534791  0.55325023  0.14832530    -0.80970
C388        C  0.93730230  0.44858991  0.94242442     0.87200
O389        O  0.92303699  0.51362061  0.05153737    -0.88110
O390        O  0.86169471  0.44450703  0.02149761    -0.88210
O391        O  0.85328929  0.45030320  0.09082654    -0.75270
Mg392      Mg  0.97379003  0.37012891  0.96956455     1.57970
O393        O  0.86353773  0.33462314  0.93576658    -0.82640
H394        H  0.06170924  0.45487616  0.02766698    -0.06370
O395        O  0.94677573  0.45461240  0.11771145    -0.87910
H396        H  0.91064660  0.42415651  0.16037345    -0.06190
H397        H  0.95485176  0.55765061  0.01846193    -0.06370
C398        C  0.93488818  0.42201554  0.13612078     0.87180
C399        C  0.03536857  0.43282093  0.02575740     0.87770
C400        C  0.95646692  0.53193358  0.04106094     0.87810
H401        H  0.81766469  0.41150338  0.05347129    -0.06350
O402        O  0.88587347  0.35169039  0.02957208    -0.75380
Mg403      Mg  0.89992295  0.50126407  0.11528114     1.58000
H404        H  0.92289244  0.31748704  0.06953374    -0.06370
C405        C  0.03401260  0.39115426  0.17015704     0.92800
O406        O  0.00943647  0.52368512  0.15243034    -0.82610
C407        C  0.98400162  0.55286430  0.16198584     0.92860
O408        O  0.02551640  0.32326124  0.97308058    -0.82590
Mg409      Mg  0.86156469  0.39554884  0.97639975     1.58180
O410        O  0.02402646  0.42803139  0.15900575    -0.80920
O411        O  0.82974467  0.50446459  0.94971982    -0.82620
C412        C  0.70730439  0.55563797  0.13390925     0.03270
C413        C  0.68101897  0.52578193  0.11307284    -0.12880
C414        C  0.69816928  0.49863858  0.08208041     0.00770
C415        C  0.74178967  0.50217056  0.07275695    -0.11410
C416        C  0.76828381  0.53177091  0.09403902     0.03260
C417        C  0.75095353  0.55737953  0.12506602    -0.10830
H418        H  0.64706201  0.52574912  0.11858122     0.08860
H419        H  0.75461479  0.48317242  0.04719485     0.06390
H420        H  0.77102924  0.58086798  0.14046817     0.06230
C421        C  0.05669915  0.34985116  0.28053453     0.03270
C422        C  0.02765277  0.37281976  0.30521549    -0.12880
C423        C  0.99777393  0.39946687  0.28544701     0.00770
C424        C  0.99916201  0.40370656  0.24077784    -0.11410
C425        C  0.02926521  0.38145835  0.21602687     0.03260
C426        C  0.05632069  0.35330756  0.23597262    -0.10830
H427        H  0.03056085  0.37249414  0.33970135     0.08860
H428        H  0.97892643  0.42687930  0.22566086     0.06390
H429        H  0.08012782  0.33721514  0.21722285     0.06230
C430        C  0.84222912  0.19970239  0.92481882     0.03270
C431        C  0.86531383  0.17389073  0.95311042    -0.12880
C432        C  0.89536445  0.19171822  0.98151905     0.00770
C433        C  0.90288677  0.23556940  0.97920589    -0.11410
C434        C  0.88030377  0.26145980  0.95001174     0.03260
C435        C  0.84919966  0.24335879  0.92434268    -0.10830
H436        H  0.86230869  0.13993535  0.95062961     0.08860
H437        H  0.92822688  0.24911127  0.99847119     0.06390
H438        H  0.83287858  0.26277987  0.90104355     0.06230
O439        O  0.42511473  0.06120599  0.01532432    -0.88200
C440        C  0.34240032  0.04559804  0.92120904     0.87820
Mg441      Mg  0.47368184  0.10794435  0.00936638     1.58150
O442        O  0.42001879  0.96598659  0.92428205    -0.87940
O443        O  0.42375493  0.99208871  0.02208952    -0.75270
C444        C  0.53543900  0.08989368  0.80942759     0.92880
O445        O  0.38638414  0.12776196  0.94896882    -0.75080
O446        O  0.54468834  0.11775779  0.83761395    -0.82590
Mg447      Mg  0.36156757  0.08244757  0.00092309     1.57960
C448        C  0.48145824  0.92787035  0.81539985     0.92800
O449        O  0.32851979  0.03801247  0.05374940    -0.80850
H450        H  0.45076472  0.92174233  0.95753396    -0.06190
C451        C  0.43517738  0.05885446  0.84131207     0.87740
O452        O  0.52278569  0.05893338  0.98965952    -0.75360
O453        O  0.36062957  0.03486445  0.95456299    -0.88120
O454        O  0.44249580  0.92766280  0.82794803    -0.80930
C455        C  0.30996111  0.94618863  0.89113544     0.92910
C456        C  0.31597431  0.99928924  0.05373825     0.92770
Mg457      Mg  0.50983985  0.00872450  0.87306859     1.57950
O458        O  0.52462769  0.05284461  0.81987301    -0.80850
O459        O  0.48977395  0.96012661  0.92328986    -0.75100
O460        O  0.32031050  0.95695796  0.92858595    -0.80940
O461        O  0.36429869  0.14101100  0.04388423    -0.82650
O462        O  0.55458972  0.15425541  0.94251575    -0.80970
C463        C  0.45307100  0.94772703  0.93528453     0.87200
O464        O  0.51619820  0.05731477  0.91964717    -0.88110
O465        O  0.44607684  0.02601416  0.85959855    -0.88210
O466        O  0.45028788  0.09474903  0.85156593    -0.75270
Mg467      Mg  0.37362712  0.97181848  0.97295752     1.57970
O468        O  0.33811616  0.93708646  0.86323609    -0.82640
H469        H  0.45817558  0.03103317  0.06050015    -0.06370
O470        O  0.45573268  0.12077989  0.94528380    -0.87910
H471        H  0.42407266  0.16277756  0.91002663    -0.06190
H472        H  0.56118055  0.02523178  0.95082161    -0.06370
C473        C  0.42248297  0.13834542  0.93406773     0.87180
C474        C  0.43595461  0.02855652  0.03420193     0.87770
C475        C  0.53494512  0.04690418  0.95293293     0.87810
H476        H  0.41126495  0.05707242  0.81649006    -0.06350
O477        O  0.35252757  0.03081136  0.88499453    -0.75380
Mg478      Mg  0.50204746  0.12024919  0.89727484     1.58000
H479        H  0.31778790  0.06910764  0.92280309    -0.06370
C480        C  0.39185541  0.16951275  0.03468690     0.92800
O481        O  0.52550375  0.15535432  0.00746829    -0.82610
C482        C  0.55442200  0.16651260  0.98174873     0.92860
O483        O  0.32654082  0.97373139  0.02481191    -0.82590
Mg484      Mg  0.39785853  0.97974404  0.86047062     1.58180
O485        O  0.42924807  0.16016809  0.02378889    -0.80920
O486        O  0.50739935  0.95688445  0.82570491    -0.82620
C487        C  0.55687514  0.13728395  0.70091576     0.03270
C488        C  0.55718208  0.13101336  0.74520254    -0.12880
C489        C  0.53145707  0.10033074  0.76357005     0.00770
C490        C  0.50241605  0.07752025  0.73747700    -0.11410
C491        C  0.50069943  0.08383773  0.69305742     0.03260
C492        C  0.52908994  0.11343979  0.67480735    -0.10830
H493        H  0.58023741  0.14765033  0.76493515     0.08860
H494        H  0.48299171  0.05266616  0.75131396     0.06390
H495        H  0.53179630  0.11568957  0.64040347     0.06230
C496        C  0.34255729  0.27431151  0.05920147     0.03270
C497        C  0.36451594  0.30151182  0.03098408    -0.12880
C498        C  0.39453548  0.28521348  0.00208523     0.00770
C499        C  0.40248835  0.24162580  0.00310278    -0.11410
C500        C  0.38050566  0.21446755  0.03159644     0.03260
C501        C  0.34953446  0.23087204  0.05790862    -0.10830
H502        H  0.36067695  0.33527745  0.03375064     0.08860
H503        H  0.42767394  0.22925649  0.98331649     0.06390
H504        H  0.33358906  0.21025697  0.08054784     0.06230
C505        C  0.20227554  0.92632349  0.84090591     0.03270
C506        C  0.17660434  0.95528157  0.86286250    -0.12880
C507        C  0.19466604  0.98234561  0.89381635     0.00770
C508        C  0.23855270  0.97925706  0.90225532    -0.11410
C509        C  0.26440032  0.95027069  0.88003916     0.03260
C510        C  0.24617115  0.92511669  0.84875057    -0.10830
H511        H  0.14245634  0.95449647  0.85832196     0.08860
H512        H  0.25208647  0.99791814  0.92797411     0.06390
H513        H  0.26568078  0.90209899  0.83259130     0.06230
O514        O  0.55769149  0.46406954  0.55651077    -0.88200
C515        C  0.54453844  0.55672565  0.63983351     0.87820
Mg516      Mg  0.60317664  0.46967633  0.50691969     1.58150
O517        O  0.46405020  0.55553302  0.56067903    -0.87940
O518        O  0.48790197  0.45819355  0.55757912    -0.75270
C519        C  0.59169534  0.66950557  0.44869394     0.92880
O520        O  0.62679991  0.52842828  0.59516090    -0.75080
O521        O  0.61895674  0.64130754  0.43902553    -0.82590
Mg522      Mg  0.58062688  0.47772690  0.62019033     1.57960
C523        C  0.42801851  0.66474888  0.49949759     0.92800
O524        O  0.53479017  0.42603588  0.65383551    -0.80850
H525        H  0.41860954  0.52388720  0.52892984    -0.06190
C526        C  0.55960408  0.63585869  0.54789116     0.87740
O527        O  0.55312063  0.49129331  0.45882797    -0.75360
O528        O  0.53321052  0.52405788  0.62123354    -0.88120
O529        O  0.42718324  0.65136300  0.53830124    -0.80930
C530        C  0.44419338  0.58798229  0.67068536     0.92910
C531        C  0.49564393  0.42659455  0.66594631     0.92770
Mg532      Mg  0.50804850  0.60747710  0.47181324     1.57950
O533        O  0.55404144  0.65961607  0.45882570    -0.80850
O534        O  0.45763956  0.55833932  0.49065939    -0.75100
O535        O  0.45477897  0.55104203  0.66045761    -0.80940
O536        O  0.64010924  0.43535659  0.61657744    -0.82650
O537        O  0.65124640  0.53625110  0.42711837    -0.80970
C538        C  0.44523788  0.54560137  0.52719009     0.87200
O539        O  0.55520847  0.56049885  0.46524235    -0.88110
O540        O  0.52590950  0.61891084  0.53613465    -0.88210
O541        O  0.59549089  0.62524627  0.53296546    -0.75270
Mg542      Mg  0.46906954  0.50702095  0.60740890     1.57970
O543        O  0.43540034  0.61568436  0.64235226    -0.82640
H544        H  0.52620498  0.41941603  0.52391813    -0.06370
O545        O  0.61867227  0.53240759  0.52556473    -0.87910
H546        H  0.66258906  0.56617331  0.55709127    -0.06190
H547        H  0.52046072  0.53120098  0.42044263    -0.06370
C548        C  0.63731319  0.54291994  0.55884210     0.87180
C549        C  0.52435411  0.44562681  0.54581761     0.87770
C550        C  0.54277722  0.52811310  0.44655843     0.87810
H551        H  0.55857557  0.65977282  0.57239807    -0.06350
O552        O  0.53001707  0.59267824  0.62977235    -0.75380
Mg553      Mg  0.61938262  0.58079899  0.48025613     1.58000
H554        H  0.56825234  0.55474042  0.66480170    -0.06370
C555        C  0.66777513  0.44402661  0.58778079     0.92800
O556        O  0.64882435  0.47082459  0.45352785    -0.82610
C557        C  0.66098230  0.49689166  0.42543452     0.92860
O558        O  0.47046044  0.45551198  0.65479301    -0.82590
Mg559      Mg  0.47902353  0.61816378  0.58359173     1.58180
O560        O  0.65677104  0.45429123  0.55038498    -0.80920
O561        O  0.45747649  0.65516876  0.47400832    -0.82620
C562        C  0.63836798  0.77682443  0.42535319     0.03270
C563        C  0.63346417  0.73292913  0.42667429    -0.12880
C564        C  0.60325659  0.71466277  0.45318710     0.00770
C565        C  0.58085225  0.74058641  0.48224054    -0.11410
C566        C  0.58726230  0.78459570  0.48312534     0.03260
C567        C  0.61578113  0.80254194  0.45362699    -0.10830
H568        H  0.64949564  0.71355991  0.40330392     0.08860
H569        H  0.55614776  0.72695334  0.50211537     0.06390
H570        H  0.61725109  0.83647937  0.44977298     0.06230
C571        C  0.42149562  0.63362946  0.77925381     0.03270
C572        C  0.45074100  0.61187722  0.80512927    -0.12880
C573        C  0.47969109  0.58354664  0.78671463     0.00770
C574        C  0.47777335  0.57702539  0.74237113    -0.11410
C575        C  0.44800124  0.59855536  0.71643333     0.03260
C576        C  0.42134293  0.62784859  0.73492495    -0.10830
H577        H  0.44887246  0.61464495  0.83953728     0.08860
H578        H  0.49774088  0.55302134  0.72847821     0.06390
H579        H  0.39792855  0.64374361  0.71529055     0.06230
C580        C  0.77706648  0.42274655  0.63266639     0.03270
C581        C  0.80241477  0.45229283  0.61021941    -0.12880
C582        C  0.78354942  0.48081286  0.58125397     0.00770
C583        C  0.73920745  0.47793054  0.57484824    -0.11410
C584        C  0.71374893  0.44830081  0.59751391     0.03260
C585        C  0.73281553  0.42225466  0.62730129    -0.10830
H586        H  0.83672522  0.45097160  0.61287299     0.08860
H587        H  0.72483944  0.49743198  0.55039938     0.06390
H588        H  0.71358301  0.39882429  0.64375860     0.06230
O589        O  0.41841110  0.00929079  0.55892843    -0.88200
C590        C  0.43657001  0.91729768  0.64133914     0.87820
Mg591      Mg  0.37124631  0.00269283  0.51066867     1.58150
O592        O  0.51602568  0.92046089  0.56230512    -0.87940
O593        O  0.48823996  0.01671100  0.55794329    -0.75270
C594        C  0.39134188  0.80661288  0.44572378     0.92880
O595        O  0.35411747  0.94114705  0.59741089    -0.75080
O596        O  0.36392289  0.83459755  0.43582466    -0.82590
Mg597      Mg  0.39834234  0.99397706  0.62284199     1.57960
C598        C  0.55371872  0.81177411  0.50116881     0.92800
O599        O  0.44276024  0.04785406  0.65525819    -0.80850
H600        H  0.56151943  0.95274598  0.53158027    -0.06190
C601        C  0.42199757  0.83745196  0.54707902     0.87740
O602        O  0.42167373  0.98488457  0.46116266    -0.75360
O603        O  0.44725054  0.95016216  0.62273387    -0.88120
O604        O  0.55396334  0.82451069  0.54018930    -0.80930
C605        C  0.53633598  0.88940379  0.67248098     0.92910
C606        C  0.48237105  0.04976619  0.66598840     0.92770
Mg607      Mg  0.47327361  0.86936011  0.47255519     1.57950
O608        O  0.42853375  0.81678199  0.45738911    -0.80850
O609        O  0.52279119  0.91879787  0.49242415    -0.75100
O610        O  0.52609208  0.92636819  0.66177828    -0.80940
O611        O  0.33734141  0.03315080  0.62222971    -0.82650
O612        O  0.32938682  0.93811158  0.42661108    -0.80970
C613        C  0.53502429  0.93091605  0.52922886     0.87200
O614        O  0.42471065  0.91565278  0.46671068    -0.88110
O615        O  0.45518195  0.85603356  0.53656810    -0.88210
O616        O  0.38593381  0.84703898  0.53148710    -0.75270
Mg617      Mg  0.51032867  0.96937948  0.60818588     1.57970
O618        O  0.54490786  0.86126924  0.64455318    -0.82640
H619        H  0.44784012  0.05411666  0.52479294    -0.06370
O620        O  0.35971914  0.93901684  0.52738742    -0.87910
H621        H  0.31940740  0.90185757  0.55969863    -0.06190
H622        H  0.45748163  0.94804768  0.42270094    -0.06370
C623        C  0.34321200  0.92661946  0.56109646     0.87180
C624        C  0.45103647  0.02828187  0.54707247     0.87770
C625        C  0.43502790  0.94912429  0.44870505     0.87810
H626        H  0.42361231  0.81283708  0.57090666    -0.06350
O627        O  0.45086466  0.88152661  0.63075579    -0.75380
Mg628      Mg  0.36113874  0.89270916  0.47973348     1.58000
H629        H  0.41324300  0.91892714  0.66652553    -0.06370
C630        C  0.30851425  0.02298620  0.59506089     0.92800
O631        O  0.32431345  0.00131530  0.45738151    -0.82610
C632        C  0.31633814  0.97651180  0.42665404     0.92860
O633        O  0.50865180  0.02202826  0.65454906    -0.82590
Mg634      Mg  0.50185743  0.85743157  0.58490944     1.58180
O635        O  0.31778886  0.01362217  0.55689427    -0.80920
O636        O  0.52488370  0.82223488  0.47500415    -0.82620
C637        C  0.34512765  0.69926976  0.42118256     0.03270
C638        C  0.36621895  0.67372425  0.45105602    -0.12880
C639        C  0.39463991  0.69176797  0.48078774     0.00770
C640        C  0.40159131  0.73561911  0.47936080    -0.11410
C641        C  0.38015745  0.76139087  0.44931170     0.03260
C642        C  0.35081215  0.74309685  0.42171385    -0.10830
H643        H  0.36352606  0.63974460  0.44857206     0.08860
H644        H  0.42589446  0.74924141  0.49987323     0.06390
H645        H  0.33540055  0.76243424  0.39772979     0.06230
C646        C  0.20332474  0.06262959  0.62585421     0.03270
C647        C  0.17525426  0.03497494  0.60397688    -0.12880
C648        C  0.19097889  0.99771626  0.58516459     0.00770
C649        C  0.23538542  0.99207407  0.58465572    -0.11410
C650        C  0.26297337  0.02015298  0.60660798     0.03260
C651        C  0.24564678  0.05073191  0.63255878    -0.10830
H652        H  0.14260457  0.04413596  0.59836447     0.08860
H653        H  0.24862244  0.96761130  0.56470573     0.06390
H654        H  0.26689107  0.07141013  0.65026745     0.06230
C655        C  0.55590278  0.84247432  0.78140271     0.03270
C656        C  0.52681019  0.86459551  0.80680789    -0.12880
C657        C  0.49955239  0.89442444  0.78813370     0.00770
C658        C  0.50264531  0.90167710  0.74389661    -0.11410
C659        C  0.53178159  0.87913879  0.71830185     0.03260
C660        C  0.55686716  0.84862103  0.73712325    -0.10830
H661        H  0.52800407  0.86132500  0.84121677     0.08860
H662        H  0.48395011  0.92670965  0.72987164     0.06390
H663        H  0.58013974  0.83230509  0.71789013     0.06230
C664        C  0.19822055  0.27542807  0.75381554     0.03270
C665        C  0.22974681  0.30121078  0.73597231    -0.12880
C666        C  0.24390413  0.29395606  0.69449592     0.00770
C667        C  0.22376843  0.26330411  0.66966322    -0.11410
C668        C  0.19729373  0.23248959  0.68872241     0.03260
C669        C  0.18465669  0.23911109  0.73143671    -0.10830
H670        H  0.24497129  0.32538473  0.75523619     0.08860
H671        H  0.23359329  0.26057883  0.63673021     0.06390
H672        H  0.16572628  0.21579240  0.74802192     0.06230
C673        C  0.22468344  0.17735788  0.64010814    -0.05640
C674        C  0.19126496  0.19073890  0.66649916     0.00290
C675        C  0.15592093  0.16264996  0.67200329    -0.08280
C676        C  0.15958017  0.12042137  0.65801103    -0.05660
C677        C  0.19391834  0.10791438  0.63268295     0.00270
C678        C  0.22357888  0.13896522  0.61901613    -0.08190
C679        C  0.25571017  0.13289664  0.58335046     0.62180
H680        H  0.25272313  0.19665984  0.63519635     0.12880
H681        H  0.13539498  0.09737837  0.66649390     0.12890
C682        C  0.11354556  0.17583856  0.69010384     0.62420
F683        F  0.25670527  0.16848877  0.55777134    -0.22750
F684        F  0.24530267  0.09917765  0.55730398    -0.20080
F685        F  0.29586993  0.12721305  0.60051719    -0.19750
F686        F  0.10854233  0.21902081  0.68845631    -0.19810
F687        F  0.10993381  0.16184824  0.73177369    -0.20130
F688        F  0.08087243  0.15810084  0.66623332    -0.22800
C689        C  0.34129053  0.36170924  0.67523398    -0.05640
C690        C  0.37305023  0.33189564  0.68355694     0.00290
C691        C  0.36244491  0.28873641  0.68649395    -0.08280
C692        C  0.31932403  0.27715690  0.68574282    -0.05660
C693        C  0.28725267  0.30767272  0.68297008     0.00270
C694        C  0.29805914  0.35019361  0.67523308    -0.08190
C695        C  0.26403818  0.38305869  0.66832676     0.62180
H696        H  0.35035894  0.39465671  0.67295006     0.12880
H697        H  0.31022246  0.24451853  0.69082263     0.12890
C698        C  0.39658977  0.25565421  0.69234156     0.62420
F699        F  0.28141797  0.42160914  0.65670196    -0.22750
F700        F  0.24101246  0.38861639  0.70535616    -0.20080
F701        F  0.23682933  0.36994759  0.63609131    -0.19750
F702        F  0.41670646  0.26082628  0.73133364    -0.19810
F703        F  0.42634209  0.25967260  0.66013678    -0.20130
F704        F  0.37981234  0.21519571  0.69081681    -0.22800
C705        C  0.12573333  0.29313859  0.84856653    -0.05640
C706        C  0.15511934  0.29217331  0.88223109     0.00290
C707        C  0.19904367  0.29232820  0.87355176    -0.08280
C708        C  0.21226289  0.28840031  0.83089267    -0.05660
C709        C  0.18250661  0.28473637  0.79731340     0.00270
C710        C  0.13866020  0.29014262  0.80597702    -0.08190
C711        C  0.10435626  0.28907734  0.77181824     0.62180
H712        H  0.09205222  0.29254483  0.85595363     0.12880
H713        H  0.24581384  0.28592060  0.82375236     0.12890
C714        C  0.23120325  0.29562002  0.90958828     0.62420
F715        F  0.07062384  0.31432425  0.78339030    -0.22750
F716        F  0.08952887  0.24819800  0.76735505    -0.20080
F717        F  0.11921560  0.30371947  0.73298287    -0.19750
F718        F  0.22830738  0.26059269  0.93576018    -0.19810
F719        F  0.22301683  0.33130009  0.93342843    -0.20130
F720        F  0.27241480  0.29860034  0.89441620    -0.22800
C721        C  0.16059395  0.68326605  0.66893842    -0.05640
C722        C  0.20322397  0.69644204  0.67052857     0.00290
C723        C  0.22667888  0.70100783  0.63214863    -0.08280
C724        C  0.20499911  0.69651715  0.59310825    -0.05660
C725        C  0.16104633  0.68929397  0.59182487     0.00270
C726        C  0.13863918  0.68034908  0.62999315    -0.08190
C727        C  0.09095787  0.67181646  0.62985857     0.62180
H728        H  0.14355371  0.67966813  0.69873566     0.12880
H729        H  0.22111844  0.70339107  0.56336968     0.12890
C730        C  0.27325959  0.71418997  0.63214296     0.62420
F731        F  0.07577887  0.66318846  0.67041498    -0.22750
F732        F  0.08189212  0.63741552  0.60427985    -0.20080
F733        F  0.06948329  0.70653526  0.61440175    -0.19750
F734        F  0.29736396  0.68363857  0.65197749    -0.19810
F735        F  0.27838130  0.75205385  0.65341539    -0.20130
F736        F  0.28879586  0.71936719  0.59114115    -0.22800
C737        C  0.20031463  0.89003419  0.77249486    -0.05640
C738        C  0.18502844  0.89172981  0.81444837     0.00290
C739        C  0.16986993  0.85439702  0.83430203    -0.08280
C740        C  0.17668679  0.81566610  0.81386866    -0.05660
C741        C  0.19835626  0.81368084  0.77494209     0.00270
C742        C  0.20853983  0.85133291  0.75263489    -0.08190
C743        C  0.23168746  0.85084195  0.71012596     0.62180
H744        H  0.21142840  0.91910837  0.75799737     0.12880
H745        H  0.16831682  0.78639961  0.82971383     0.12890
C746        C  0.14963943  0.85522063  0.87823398     0.62420
F747        F  0.24069861  0.89112814  0.69548081    -0.22750
F748        F  0.20691424  0.83087607  0.67963762    -0.20080
F749        F  0.26973894  0.82982773  0.71447526    -0.19750
F750        F  0.11453605  0.88113186  0.87738275    -0.19810
F751        F  0.17846461  0.87014236  0.90817928    -0.20130
F752        F  0.13620085  0.81551933  0.89105061    -0.22800
C753        C  0.30935109  0.66110770  0.80340056    -0.05640
C754        C  0.30970241  0.70280234  0.78839545     0.00290
C755        C  0.34915702  0.72415304  0.78250304    -0.08280
C756        C  0.38691545  0.70146883  0.78824640    -0.05660
C757        C  0.38606756  0.65816049  0.79672595     0.00270
C758        C  0.34705105  0.63789061  0.80666106    -0.08190
C759        C  0.34496655  0.59101891  0.81653150     0.62180
H760        H  0.27889459  0.64554481  0.80792513     0.12880
H761        H  0.41727681  0.71592854  0.78056471     0.12890
C762        C  0.35171017  0.76903791  0.76568788     0.62420
F763        F  0.30402606  0.57781752  0.82620205    -0.22750
F764        F  0.37069469  0.58224513  0.85123698    -0.20080
F765        F  0.35862270  0.56809943  0.78171010    -0.19750
F766        F  0.33302947  0.79627783  0.79424143    -0.19810
F767        F  0.33117792  0.77149451  0.72670853    -0.20130
F768        F  0.39333214  0.78241065  0.75986124    -0.22800
C769        C  0.63956242  0.22133290  0.69662832    -0.05640
C770        C  0.67533710  0.19570020  0.69139275     0.00290
C771        C  0.67014752  0.15428130  0.67532483    -0.08280
C772        C  0.62875147  0.13762876  0.67156855    -0.05660
C773        C  0.59326395  0.16125867  0.68358090     0.00270
C774        C  0.59820791  0.20461564  0.69275104    -0.08190
C775        C  0.55982179  0.23220012  0.70042199     0.62180
H776        H  0.64417454  0.25349952  0.70734853     0.12880
H777        H  0.62422057  0.10456513  0.66404459     0.12890
C778        C  0.70803160  0.12735759  0.66363828     0.62420
F779        F  0.57122961  0.27429424  0.70395884    -0.22750
F780        F  0.53938133  0.22028591  0.73757949    -0.20080
F781        F  0.53180645  0.22809845  0.66650137    -0.19750
F782        F  0.72937139  0.11460335  0.69998212    -0.19810
F783        F  0.73553825  0.15028666  0.63802632    -0.20130
F784        F  0.69557284  0.09162791  0.64138553    -0.22800
C785        C  0.75900392  0.19681227  0.84108393    -0.05640
C786        C  0.78552243  0.19222791  0.80544974     0.00290
C787        C  0.82694671  0.17596285  0.81081052    -0.08280
C788        C  0.84288767  0.17126990  0.85249308    -0.05660
C789        C  0.81850841  0.18262912  0.88803540     0.00270
C790        C  0.77498809  0.19198746  0.88269938    -0.08190
C791        C  0.74657963  0.19902998  0.92102956     0.62180
H792        H  0.72675936  0.20761424  0.83624191     0.12880
H793        H  0.87605845  0.16355950  0.85734026     0.12890
C794        C  0.85450008  0.16490823  0.77282090     0.62420
F795        F  0.70433746  0.20285852  0.90914781    -0.22750
F796        F  0.75868384  0.23532309  0.94237144    -0.20080
F797        F  0.74987812  0.16508136  0.94855689    -0.19750
F798        F  0.86713354  0.20102233  0.75152097    -0.19810
F799        F  0.83174028  0.13928854  0.74511313    -0.20130
F800        F  0.89069142  0.14354047  0.78529008    -0.22800
C801        C  0.80247627  0.31069695  0.65614963    -0.05640
C802        C  0.78649186  0.30816816  0.69780274     0.00290
C803        C  0.77877244  0.34567599  0.72103025    -0.08280
C804        C  0.78423564  0.38460408  0.70014371    -0.05660
C805        C  0.79464054  0.38675758  0.65667847     0.00270
C806        C  0.80608472  0.34952165  0.63475912    -0.08190
C807        C  0.81834352  0.35043489  0.58788888     0.62180
H808        H  0.80843016  0.28159327  0.63924956     0.12880
H809        H  0.77530337  0.41350445  0.71599966     0.12890
C810        C  0.76118265  0.34472878  0.76619371     0.62420
F811        F  0.82872425  0.31079436  0.57296886    -0.22750
F812        F  0.85332718  0.37652350  0.58236390    -0.20080
F813        F  0.78489108  0.36523427  0.56347361    -0.19750
F814        F  0.79052237  0.32697797  0.79360615    -0.19810
F815        F  0.72382883  0.32138740  0.76728544    -0.20130
F816        F  0.75237673  0.38476125  0.78111745    -0.22800
C817        C  0.64820959  0.18451433  0.17972178    -0.05640
C818        C  0.69270052  0.18419780  0.18278692     0.00290
C819        C  0.71750955  0.18051386  0.14511981    -0.08280
C820        C  0.69656485  0.18178205  0.10534469    -0.05660
C821        C  0.65253763  0.18719100  0.10263629     0.00270
C822        C  0.62754868  0.18710462  0.14016095    -0.08190
C823        C  0.57976034  0.19419130  0.13875926     0.62180
H824        H  0.62996226  0.18704982  0.20886753     0.12880
H825        H  0.71463772  0.18188632  0.07597719     0.12890
C826        C  0.76571409  0.17760554  0.14633185     0.62420
F827        F  0.56123293  0.18804074  0.17834290    -0.22750
F828        F  0.56076441  0.16643541  0.11040608    -0.20080
F829        F  0.57145616  0.23504572  0.12601145    -0.19750
F830        F  0.77749061  0.13969557  0.16436854    -0.19810
F831        F  0.78283991  0.21050391  0.16985232    -0.20130
F832        F  0.78313429  0.17941181  0.10581072    -0.22800
C833        C  0.83056036  0.19068236  0.31004001    -0.05640
C834        C  0.79493463  0.16408588  0.30384010     0.00290
C835        C  0.80080750  0.11989227  0.30456773    -0.08280
C836        C  0.84245400  0.10441207  0.30364959    -0.05660
C837        C  0.87772945  0.13179381  0.30327828     0.00270
C838        C  0.87211548  0.17525443  0.30930164    -0.08190
C839        C  0.90996917  0.20529427  0.31138227     0.62180
H840        H  0.82626459  0.22407762  0.31063229     0.12880
H841        H  0.84740615  0.07086626  0.29973075     0.12890
C842        C  0.76459589  0.08808871  0.30472410     0.62420
F843        F  0.89769894  0.24626575  0.31966980    -0.22750
F844        F  0.93159689  0.20509108  0.27300229    -0.20080
F845        F  0.93721471  0.19271949  0.34363659    -0.19750
F846        F  0.76380306  0.06666577  0.26629091    -0.19810
F847        F  0.72550083  0.10661235  0.31117540    -0.20130
F848        F  0.77098160  0.05942748  0.33738738    -0.22800
C849        C  0.67048178  0.31339763  0.29367853    -0.05640
C850        C  0.71060336  0.29384615  0.29559962     0.00290
C851        C  0.74492298  0.31626327  0.31407371    -0.08280
C852        C  0.73610200  0.35137627  0.33852066    -0.05660
C853        C  0.69878450  0.37463860  0.33162720     0.00270
C854        C  0.66463727  0.35497105  0.30917280    -0.08190
C855        C  0.62249572  0.37668784  0.30210295     0.62180
H856        H  0.64410626  0.29632703  0.27938971     0.12880
H857        H  0.76199441  0.36481311  0.35718146     0.12890
C858        C  0.79149045  0.30863839  0.30423235     0.62420
F859        F  0.59703650  0.35468962  0.27351190    -0.22750
F860        F  0.62904297  0.41675885  0.28585513    -0.20080
F861        F  0.60089293  0.37914557  0.34033702    -0.19750
F862        F  0.79687485  0.28180960  0.26996461    -0.19810
F863        F  0.81160536  0.29286508  0.34007327    -0.20130
F864        F  0.81095357  0.34646439  0.29331249    -0.22800
C865        C  0.31991899  0.29600122  0.17367364    -0.05640
C866        C  0.27854744  0.27950739  0.17616160     0.00290
C867        C  0.25522949  0.27104990  0.13835831    -0.08280
C868        C  0.27563640  0.27682881  0.09885657    -0.05660
C869        C  0.31858260  0.28918154  0.09655149     0.00270
C870        C  0.34072590  0.30060213  0.13435762    -0.08190
C871        C  0.38711896  0.31450329  0.13347789     0.62180
H872        H  0.33668274  0.30285026  0.20316555     0.12880
H873        H  0.25968729  0.26753438  0.06959352     0.12890
C874        C  0.21028312  0.25322471  0.13980091     0.62420
F875        F  0.40235304  0.32406537  0.17388019    -0.22750
F876        F  0.39139272  0.35017511  0.10844066    -0.20080
F877        F  0.41205478  0.28278539  0.11696270    -0.19750
F878        F  0.18348114  0.28182967  0.15884260    -0.19810
F879        F  0.20975981  0.21608213  0.16296028    -0.20130
F880        F  0.19455083  0.24468477  0.09934164    -0.22800
C881        C  0.31463063  0.11773307  0.31150271    -0.05640
C882        C  0.28459500  0.10352030  0.34130192     0.00290
C883        C  0.25652420  0.13308270  0.35944123    -0.08280
C884        C  0.25147359  0.17174026  0.33921491    -0.05660
C885        C  0.27972828  0.18644655  0.30753421     0.00270
C886        C  0.31504850  0.16014557  0.29732894    -0.08190
C887        C  0.35451036  0.17516127  0.27394695     0.62180
H888        H  0.33800664  0.09584351  0.29956095     0.12880
H889        H  0.22400670  0.18952229  0.34857091     0.12890
C890        C  0.22937910  0.12459858  0.39866297     0.62420
F891        F  0.39032168  0.16047361  0.29483674    -0.22750
F892        F  0.35783412  0.21862434  0.27288147    -0.20080
F893        F  0.35430278  0.15939043  0.23280003    -0.19750
F894        F  0.24309191  0.09003392  0.42164931    -0.19810
F895        F  0.18743806  0.11850756  0.38650303    -0.20130
F896        F  0.23159260  0.15905451  0.42564929    -0.22800
C897        C  0.12784274  0.35581854  0.31160094    -0.05640
C898        C  0.09394396  0.32912049  0.29948924     0.00290
C899        C  0.10182917  0.28624596  0.29059884    -0.08280
C900        C  0.14402425  0.27294305  0.28806437    -0.05660
C901        C  0.17806089  0.30111740  0.29451353     0.00270
C902        C  0.17028686  0.34244011  0.30870514    -0.08190
C903        C  0.20675208  0.37239475  0.31860969     0.62180
H904        H  0.12119070  0.38859139  0.31827559     0.12880
H905        H  0.15050532  0.24093343  0.27801133     0.12890
C906        C  0.06694848  0.25471576  0.27963492     0.62420
F907        F  0.19247152  0.41039465  0.33448549    -0.22750
F908        F  0.22986175  0.38042777  0.28197256    -0.20080
F909        F  0.23312656  0.35438669  0.34885999    -0.19750
F910        F  0.06952744  0.24430298  0.23685504    -0.19810
F911        F  0.02676411  0.27011304  0.28780280    -0.20130
F912        F  0.07221100  0.21859975  0.30380311    -0.22800
C913        C  0.67634300  0.66509070  0.16210311    -0.05640
C914        C  0.69964526  0.66915331  0.20005647     0.00290
C915        C  0.71526997  0.63286334  0.22101651    -0.08280
C916        C  0.70890326  0.59348056  0.20159177    -0.05660
C917        C  0.69089711  0.59010860  0.16064788     0.00270
C918        C  0.67216682  0.62598614  0.14144036    -0.08190
C919        C  0.65074144  0.62369428  0.09794607     0.62180
H920        H  0.66437145  0.69343016  0.14715456     0.12880
H921        H  0.72316398  0.56564503  0.21543552     0.12890
C922        C  0.74202044  0.63608488  0.26144060     0.62420
F923        F  0.63518013  0.66243672  0.08522908    -0.22750
F924        F  0.61687344  0.59569645  0.09958656    -0.20080
F925        F  0.67938159  0.61049989  0.06744032    -0.19750
F926        F  0.71819929  0.65306200  0.29404570    -0.19810
F927        F  0.77721406  0.66153595  0.25412840    -0.20130
F928        F  0.75637063  0.59709350  0.27485109    -0.22800
C929        C  0.83498931  0.76441565  0.18094157    -0.05640
C930        C  0.80011243  0.79096780  0.18862348     0.00290
C931        C  0.80620351  0.83533510  0.18617927    -0.08280
C932        C  0.84785535  0.85120343  0.18491848    -0.05660
C933        C  0.88286788  0.82426942  0.18362413     0.00270
C934        C  0.87654694  0.78072592  0.17783955    -0.08190
C935        C  0.91396203  0.75195409  0.17042412     0.62180
H936        H  0.83031861  0.73059311  0.18146801     0.12880
H937        H  0.85325372  0.88487720  0.18810797     0.12890
C938        C  0.77043084  0.86716939  0.18689623     0.62420
F939        F  0.90092918  0.71094865  0.16232161    -0.22750
F940        F  0.94027230  0.75185329  0.20588923    -0.20080
F941        F  0.93673397  0.76630081  0.13550630    -0.19750
F942        F  0.77091623  0.88837942  0.22547899    -0.19810
F943        F  0.73086946  0.84870659  0.18085297    -0.20130
F944        F  0.77642723  0.89619178  0.15442325    -0.22800
C945        C  0.71808559  0.79292411  0.33954551    -0.05640
C946        C  0.69100849  0.78692110  0.30415909     0.00290
C947        C  0.64649749  0.79135011  0.30911204    -0.07960
C948        C  0.63022617  0.79433164  0.35042634    -0.05660
C949        C  0.65708992  0.79394048  0.38617379     0.00270
C950        C  0.70148886  0.79653865  0.38095567    -0.08190
C951        C  0.73062857  0.80092091  0.41934825     0.62180
H952        H  0.75213768  0.79076553  0.33514066     0.12880
H953        H  0.59605996  0.79286058  0.35504862     0.12890
C954        C  0.61484985  0.78968021  0.27241559     0.62420
F955        F  0.77271253  0.80592114  0.40738826    -0.22750
F956        F  0.72736732  0.76553527  0.44498750    -0.20080
F957        F  0.71897381  0.83593780  0.44267436    -0.19750
F958        F  0.59394966  0.75113007  0.27273285    -0.19810
F959        F  0.63396546  0.79551166  0.23312619    -0.20130
F960        F  0.58515868  0.82121019  0.27731051    -0.22800
C961        C  0.30737406  0.80943140  0.15599806    -0.05640
C962        C  0.29354983  0.80589698  0.19836699     0.00290
C963        C  0.28739808  0.84285001  0.22308724    -0.08280
C964        C  0.29105854  0.88215903  0.20274404    -0.05660
C965        C  0.29855375  0.88510102  0.15884630     0.00270
C966        C  0.30900020  0.84860545  0.13527638    -0.08190
C967        C  0.31768911  0.85058286  0.08758479     0.62180
H968        H  0.31227095  0.78076606  0.13799685     0.12880
H969        H  0.28316439  0.91073003  0.21974145     0.12890
C970        C  0.27334095  0.84115127  0.26946964     0.62420
F971        F  0.32727803  0.81137165  0.07103986    -0.22750
F972        F  0.35187147  0.87716817  0.07991399    -0.20080
F973        F  0.28234306  0.86545592  0.06609702    -0.19750
F974        F  0.30469991  0.82300457  0.29420223    -0.19810
F975        F  0.23614988  0.81792555  0.27308913    -0.20130
F976        F  0.26580427  0.88091938  0.28579050    -0.22800
C977        C  0.17473154  0.65688589  0.17271838    -0.05640
C978        C  0.17765768  0.69901254  0.18594008     0.00290
C979        C  0.14004044  0.72305750  0.19073637    -0.08280
C980        C  0.10060949  0.70242120  0.18625237    -0.05660
C981        C  0.09812138  0.65890238  0.17958453     0.00270
C982        C  0.13538447  0.63586410  0.17060639    -0.08190
C983        C  0.13393904  0.58851156  0.16318238     0.62180
H984        H  0.20389212  0.63939866  0.16884503     0.12880
H985        H  0.07142812  0.71897036  0.19305024     0.12890
C986        C  0.14098292  0.76904903  0.20437209     0.62420
F987        F  0.17388023  0.57245728  0.15496742    -0.22750
F988        F  0.10814601  0.57953369  0.12849524    -0.20080
F989        F  0.11805575  0.56813757  0.19888735    -0.19750
F990        F  0.15980026  0.79340173  0.17299340    -0.19810
F991        F  0.16345128  0.77346836  0.24212212    -0.20130
F992        F  0.10052108  0.78458514  0.21099337    -0.22800
C993        C  0.32590377  0.67551235  0.30661561    -0.05640
C994        C  0.28355019  0.68866161  0.30365763     0.00290
C995        C  0.25896469  0.69309876  0.34134144    -0.08280
C996        C  0.27941905  0.68857493  0.38097949    -0.05660
C997        C  0.32324598  0.68180341  0.38358959     0.00270
C998        C  0.34666329  0.67285704  0.34620625    -0.08190
C999        C  0.39421665  0.66468604  0.34786702     0.62180
H1000       H  0.34378457  0.67185211  0.27737992     0.12880
H1001       H  0.26253089  0.69528258  0.41023528     0.12890
C1002       C  0.21255861  0.70619466  0.34022065     0.62420
F1003       F  0.41056085  0.65614255  0.30784159    -0.22750
F1004       F  0.40211159  0.63036999  0.37384015    -0.20080
F1005       F  0.41553406  0.69959184  0.36388399    -0.19750
F1006       F  0.18824418  0.67514109  0.32088077    -0.19810
F1007       F  0.20830532  0.74354761  0.31793926    -0.20130
F1008       F  0.19642045  0.71231911  0.38080042    -0.22800
C1009       C  0.82609982  0.80133856  0.67698631    -0.05640
C1010       C  0.78261033  0.79090212  0.67815959     0.00290
C1011       C  0.75898769  0.78918462  0.63930571    -0.08280
C1012       C  0.78116916  0.79298362  0.60060005    -0.05660
C1013       C  0.82546611  0.79671213  0.59985590     0.00270
C1014       C  0.84832992  0.80317246  0.63827700    -0.08190
C1015       C  0.89648122  0.80787875  0.63847457     0.62180
H1016       H  0.84338621  0.80335204  0.70690285     0.12880
H1017       H  0.76476949  0.78831243  0.57048487     0.12890
C1018       C  0.71148568  0.77990805  0.63789060     0.62420
F1019       F  0.91222090  0.81582429  0.67904306    -0.22750
F1020       F  0.90833318  0.84106482  0.61233438    -0.20080
F1021       F  0.91500450  0.77130809  0.62377416    -0.19750
F1022       F  0.68952440  0.81280828  0.65603368    -0.19810
F1023       F  0.70255311  0.74295320  0.65955971    -0.20130
F1024       F  0.69661981  0.77524669  0.59646977    -0.22800
C1025       C  0.79679379  0.64498702  0.76221674    -0.05640
C1026       C  0.79155718  0.67915609  0.79026777     0.00290
C1027       C  0.79741828  0.67286076  0.83473436    -0.08280
C1028       C  0.80009074  0.63151573  0.85006033    -0.05660
C1029       C  0.79866243  0.59700241  0.82223553     0.00270
C1030       C  0.80059887  0.60361888  0.77780244    -0.08190
C1031       C  0.80442797  0.56671139  0.74748815     0.62180
H1032       H  0.79362781  0.65020978  0.72819417     0.12880
H1033       H  0.79951360  0.62597032  0.88423752     0.12890
C1034       C  0.79824235  0.70823519  0.86731745     0.62420
F1035       F  0.80912403  0.57991026  0.70561222    -0.22750
F1036       F  0.76856600  0.54130476  0.74997911    -0.20080
F1037       F  0.83973453  0.54333582  0.75856629    -0.19750
F1038       F  0.76117485  0.70701275  0.89097369    -0.19810
F1039       F  0.80249748  0.74757465  0.84866898    -0.20130
F1040       F  0.83243245  0.70290055  0.89465291    -0.22800
C1041       C  0.66848132  0.82057364  0.80758262    -0.05640
C1042       C  0.67084292  0.77985225  0.79062984     0.00290
C1043       C  0.63303364  0.75630379  0.78282654    -0.08280
C1044       C  0.59382461  0.77626862  0.78867654    -0.05660
C1045       C  0.59183621  0.81902744  0.79946184     0.00270
C1046       C  0.62936581  0.84106634  0.81150885    -0.08190
C1047       C  0.62846728  0.88720056  0.82446488     0.62180
H1048       H  0.69788559  0.83756819  0.81377944     0.12880
H1049       H  0.56455963  0.76037784  0.77951592     0.12890
C1050       C  0.63380761  0.71184113  0.76478347     0.62420
F1051       F  0.66853528  0.90228143  0.83524918    -0.22750
F1052       F  0.60244821  0.89194850  0.85956713    -0.20080
F1053       F  0.61322431  0.91154744  0.79118285    -0.19750
F1054       F  0.65243134  0.68486206  0.79384097    -0.19810
F1055       F  0.65656397  0.71127478  0.72713269    -0.20130
F1056       F  0.59329165  0.69658246  0.75610442    -0.22800
loop_ 
_geom_bond_atom_site_label_1 
_geom_bond_atom_site_label_2 
_geom_bond_distance 
_geom_bond_site_symmetry_2 
_ccdc_geom_bond_type 
C1            C2   1.395       .  A
C1            C6   1.404       .  A
C1         C1042   1.475       .  S
C2            C3   1.403       .  A
C2            H7   1.082       .  S
C3            C4   1.401       .  A
C3         C1026   1.481       .  S
C4            C5   1.408       .  A
C4            H8   1.084       .  S
C5            C6   1.400       .  A
C5         C1010   1.486       .  S
C6            H9   1.080       .  S
C10          C11   1.398       .  A
C10          C15   1.404       .  A
C10         C962   1.478       .  S
C11          C12   1.404       .  A
C11          H16   1.082       .  S
C12          C13   1.397       .  A
C12         C994   1.477       .  S
C13          C14   1.404       .  A
C13          H17   1.082       .  S
C14          C15   1.397       .  A
C14         C978   1.478       .  S
C15          H18   1.082       .  S
C19          C20   1.395       .  A
C19          C24   1.403       .  A
C19         C914   1.473       .  S
C20          C21   1.402       .  A
C20          H25   1.083       .  S
C21          C22   1.398       .  A
C21         C946   1.475       .  S
C22          C23   1.406       .  A
C22          H26   1.082       .  S
C23          C24   1.405       .  A
C23         C930   1.487       .  S
C24          H27   1.083       .  S
C28          C29   1.395       .  A
C28          C33   1.395       .  A
C28         C901   1.472       .  S
C29          C30   1.415       .  A
C29          H34   1.079       .  S
C30          C31   1.414       .  A
C30         C885   1.513       .  S
C31          C32   1.408       .  A
C31          H35   1.079       .  S
C32          C33   1.394       .  A
C32         C866   1.476       .  S
C33          H36   1.083       .  S
C37          C38   1.407       .  A
C37          C42   1.401       .  A
C37         C818   1.482       .  S
C38          C39   1.399       .  A
C38          H43   1.084       .  S
C39          C40   1.406       .  A
C39         C850   1.487       .  S
C40          C41   1.402       .  A
C40          H44   1.083       .  S
C41          C42   1.407       .  A
C41         C834   1.489       .  S
C42          H45   1.078       .  S
C46          C47   1.401       .  A
C46          C51   1.403       .  A
C46         C770   1.479       .  S
C47          C48   1.405       .  A
C47          H52   1.084       .  S
C48          C49   1.400       .  A
C48         C802   1.481       .  S
C49          C50   1.404       .  A
C49          H53   1.082       .  S
C50          C51   1.399       .  A
C50         C786   1.477       .  S
C51          H54   1.084       .  S
C55          C56   1.398       .  A
C55          C60   1.402       .  A
C55         C722   1.476       .  S
C56          C57   1.405       .  A
C56          H61   1.083       .  S
C57          C58   1.402       .  A
C57         C754   1.481       .  S
C58          C59   1.405       .  A
C58          H62   1.082       .  S
C59          C60   1.396       .  A
C59         C741   1.476       .  S
C60          H63   1.084       .  S
O64         Mg66   2.134       .  S
O64         Mg72   2.160       .  S
O64          C99   1.242       .  S
C65         H104   1.081       .  S
C65          O78   1.238       .  S
C65         O102   1.270       .  A
Mg66         O95   2.121   1_556  S
Mg66        O110   2.229       .  S
Mg66        O106   2.220   1_455  S
Mg66         O77   2.291   1_455  S
O67        Mg109   2.162       .  S
O67         Mg92   2.121       .  S
O67          C88   1.242       .  S
O68          C99   1.275   1_565  A
O68         Mg92   2.291   1_556  S
C69         C123   1.477       .  S
C69          O71   1.282       .  A
C69          O83   1.263       .  A
O70          C98   1.272       .  A
O70         Mg72   2.308   1_554  S
O71        Mg103   2.317       .  S
Mg72         O78   2.094   1_556  S
Mg72         O86   2.301       .  S
Mg72         O74   2.420       .  S
C73         C282   1.484   1_455  S
C73         O111   1.267   1_455  A
C73          O79   1.287       .  A
O74          C81   1.289       .  A
H75          C88   1.081       .  S
C76         H101   1.081       .  S
C76          O90   1.239       .  S
C76          O91   1.272       .  A
O77         C100   1.274   1_556  A
O78         Mg92   2.120   1_545  S
O79        Mg109   2.402       .  S
C80         C132   1.478       .  S
C80          O93   1.280       .  A
C80          O85   1.265       .  A
C81         C507   1.484   1_545  S
C81         O108   1.265   1_545  A
Mg82         O89   2.136       .  S
Mg82         O90   2.127   1_655  S
Mg82         O83   2.217       .  S
Mg82         O84   2.284   1_545  S
Mg82        O111   2.224   1_545  S
O84          C88   1.273   1_655  A
O85         Mg92   2.229       .  S
O86         C105   1.281       .  A
O87         C107   1.291       .  A
O87        Mg103   2.431       .  S
O89        Mg103   2.166       .  S
O89         C100   1.242       .  S
O90        Mg109   2.103   1_545  S
O91        Mg103   2.306   1_455  S
Mg92        O108   2.208   1_554  S
O93        Mg109   2.304       .  S
H94          C99   1.081       .  S
O95        Mg103   2.101   1_455  S
O95          C98   1.240       .  S
H96          C98   1.081       .  S
H97         C100   1.081       .  S
O102       Mg109   2.300   1_545  S
C105        C114   1.479       .  S
C105        O110   1.264       .  A
O106        C107   1.266   1_556  A
C107        C432   1.489   1_554  S
C112        C113   1.398       .  A
C112        C117   1.408       .  A
C112        C706   1.468       .  S
C113        C114   1.385       .  A
C113        H118   1.085       .  S
C114        C115   1.420       .  A
C115        C116   1.409       .  A
C115        H119   1.084   1_556  S
C116        C117   1.410       .  A
C116        C381   1.486       .  S
C117        H120   1.084       .  S
C121        C122   1.400       .  A
C121        C126   1.406       .  A
C121        C837   1.464       .  S
C122        C123   1.385       .  A
C122        H127   1.085       .  S
C123        C124   1.419       .  A
C124        C125   1.408       .  A
C124        H128   1.084   1_655  S
C125        C126   1.406       .  A
C125        C230   1.483   1_655  S
C126        H129   1.084       .  S
C130        C131   1.401       .  A
C130        C135   1.405       .  A
C130        C965   1.469       .  S
C131        C132   1.387       .  A
C131        H136   1.085       .  S
C132        C133   1.418       .  A
C133        C134   1.407       .  A
C133        H137   1.084       .  S
C134        C135   1.407       .  A
C134        C456   1.479       .  S
C135        H138   1.084       .  S
O139       Mg141   2.114       .  S
O139       Mg147   2.162       .  S
O139        C174   1.241       .  S
C140        H179   1.081       .  S
C140        O153   1.239       .  S
C140        O177   1.273       .  A
Mg141       O170   2.114   1_455  S
Mg141       O185   2.217       .  S
Mg141       O181   2.202       .  S
Mg141       O152   2.286   1_455  S
O142       Mg184   2.159       .  S
O142       Mg167   2.144       .  S
O142        C163   1.243       .  S
O143        C174   1.273       .  A
O143       Mg167   2.282   1_455  S
C144        C189   1.480       .  S
C144        O146   1.280       .  A
C144        O158   1.266       .  A
O145        C173   1.268       .  A
O145       Mg147   2.286   1_655  S
O146       Mg178   2.287       .  S
Mg147       O153   2.115   1_455  S
Mg147       O161   2.317       .  S
Mg147       O149   2.392       .  S
C148        C582   1.493       .  S
C148        O186   1.266       .  A
C148        O154   1.292       .  A
O149        C156   1.286       .  A
H150        C163   1.081       .  S
C151        H176   1.081       .  S
C151        O165   1.241       .  S
C151        O166   1.274       .  A
O152        C175   1.274       .  A
O153       Mg167   2.131       .  S
O154       Mg184   2.440       .  S
C155        C207   1.481       .  S
C155        O168   1.281       .  A
C155        O160   1.265       .  A
C156        C264   1.479       .  S
C156        O183   1.268       .  A
Mg157       O164   2.125       .  S
Mg157       O165   2.111       .  S
Mg157       O158   2.240       .  S
Mg157       O159   2.302       .  S
Mg157       O186   2.224       .  S
O159        C163   1.276       .  A
O160       Mg167   2.236       .  S
O161        C180   1.283       .  A
O162        C182   1.290       .  A
O162       Mg178   2.422       .  S
O164       Mg178   2.157       .  S
O164        C175   1.243       .  S
O165       Mg184   2.098       .  S
O166       Mg178   2.313       .  S
Mg167       O183   2.224   1_655  S
O168       Mg184   2.311       .  S
H169        C174   1.081       .  S
O170       Mg178   2.072       .  S
O170        C173   1.238       .  S
H171        C173   1.081       .  S
H172        C175   1.081       .  S
O177       Mg184   2.315       .  S
C180        C198   1.480       .  S
C180        O185   1.263       .  A
O181        C182   1.264   1_455  A
C182        C423   1.484       .  S
C187        C188   1.406       .  A
C187        C192   1.415       .  A
C187        C853   1.500       .  S
C188        C189   1.381       .  A
C188        H193   1.085       .  S
C189        C190   1.412       .  A
C190        C191   1.405       .  A
C190        H194   1.084       .  S
C191        C192   1.419       .  A
C191        C557   1.485       .  S
C192        H195   1.078       .  S
C196        C197   1.401       .  A
C196        C201   1.405       .  A
C196        C981   1.468       .  S
C197        C198   1.386       .  A
C197        H202   1.085       .  S
C198        C199   1.420       .  A
C199        C200   1.409       .  A
C199        H203   1.084   1_455  S
C200        C201   1.406       .  A
C200        C407   1.482   1_455  S
C201        H204   1.083       .  S
C205        C206   1.402       .  A
C205        C210   1.408       .  A
C205       C1013   1.468       .  S
C206        C207   1.386       .  A
C206        H211   1.085       .  S
C207        C208   1.417       .  A
C208        C209   1.410       .  A
C208        H212   1.084       .  S
C209        C210   1.406       .  A
C209        C255   1.484       .  S
C210        H213   1.083       .  S
O214       Mg216   2.094       .  S
O214       Mg222   2.120   1_455  S
O214        C249   1.238       .  S
C215        H254   1.081       .  S
C215        O228   1.242       .  S
C215        O252   1.279   1_665  A
Mg216       O245   2.107       .  S
Mg216       O260   2.264   1_455  S
Mg216       O256   2.172       .  S
Mg216       O227   2.315       .  S
O217       Mg259   2.117   1_565  S
O217       Mg242   2.084       .  S
O217        C238   1.239       .  S
O218        C249   1.274       .  A
O218       Mg242   2.329       .  S
C219        C648   1.490       .  S
C219        O221   1.282       .  A
C219        O233   1.271       .  A
O220        C248   1.278       .  A
O220       Mg222   2.325       .  S
O221       Mg253   2.349       .  S
Mg222       O228   2.200       .  S
Mg222       O236   2.349       .  S
Mg222       O224   2.412       .  S
C223        C273   1.475       .  S
C223        O261   1.255       .  A
C223        O229   1.278       .  A
O224        C231   1.279       .  A
H225        C238   1.081       .  S
C226        H251   1.081       .  S
C226        O240   1.242   1_545  S
C226        O241   1.277   1_545  A
O227        C250   1.272       .  A
O228       Mg242   2.097   1_655  S
O229       Mg259   2.390       .  S
C230        O243   1.279       .  A
C230        O235   1.266   1_455  A
C231        C284   1.478       .  S
C231        O258   1.249       .  A
Mg232       O239   2.076       .  S
Mg232       O240   2.101       .  S
Mg232       O233   2.294       .  S
Mg232       O234   2.324       .  S
Mg232       O261   2.158   1_565  S
O234        C238   1.274       .  A
O235       Mg242   2.265   1_645  S
O236        C255   1.282       .  A
O237        C257   1.278       .  A
O237       Mg253   2.393       .  S
O239       Mg253   2.113       .  S
O239        C250   1.238       .  S
O240       Mg259   2.183   1_565  S
O241       Mg253   2.318       .  S
Mg242       O258   2.163   1_455  S
O243       Mg259   2.343       .  S
H244        C249   1.081       .  S
O245       Mg253   2.203       .  S
O245        C248   1.241   1_455  S
H246        C248   1.081       .  S
H247        C250   1.081       .  S
O252       Mg259   2.329       .  S
C255        O260   1.267       .  A
O256        C257   1.251       .  A
C257        C266   1.475       .  S
C262        C263   1.407       .  A
C262        C267   1.402       .  A
C262        C725   1.469       .  S
C263        C264   1.407       .  A
C263        H268   1.084       .  S
C264        C265   1.406       .  A
C265        C266   1.415       .  A
C265        H269   1.084       .  S
C266        C267   1.386       .  A
C267        H270   1.085       .  S
C271        C272   1.402       .  A
C271        C276   1.412       .  A
C271        C882   1.485       .  S
C272        C273   1.385       .  A
C272        H277   1.085       .  S
C273        C274   1.415   1_545  A
C274        C275   1.405       .  A
C274        H278   1.085       .  S
C275        C276   1.418   1_565  A
C275        C632   1.490       .  S
C276        H279   1.084       .  S
C280        C281   1.405       .  A
C280        C285   1.401       .  A
C280        C933   1.469       .  S
C281        C282   1.408       .  A
C281        H286   1.084       .  S
C282        C283   1.408       .  A
C283        C284   1.419       .  A
C283        H287   1.084   1_655  S
C284        C285   1.387       .  A
C285        H288   1.085       .  S
O289       Mg291   2.128       .  S
O289       Mg297   2.161       .  S
O289        C324   1.242       .  S
C290        H329   1.081       .  S
C290        O303   1.239       .  S
C290        O327   1.272       .  A
Mg291       O320   2.124       .  S
Mg291       O335   2.227       .  S
Mg291       O331   2.209       .  S
Mg291       O302   2.286       .  S
O292       Mg334   2.160   1_554  S
O292       Mg317   2.136       .  S
O292        C313   1.243       .  S
O293        C324   1.274       .  A
O293       Mg317   2.288   1_556  S
C294        C357   1.482       .  S
C294        O296   1.282       .  A
C294        O308   1.265       .  A
O295        C323   1.271       .  A
O295       Mg297   2.304       .  S
O296       Mg328   2.314       .  S
Mg297       O303   2.097       .  S
Mg297       O311   2.308       .  S
Mg297       O299   2.419       .  S
C298        C414   1.482       .  S
C298        O336   1.264       .  A
C298        O304   1.288       .  A
O299        C306   1.290       .  A
H300        C313   1.081       .  S
C301        H326   1.081       .  S
C301        O315   1.239       .  S
C301        O316   1.271       .  A
O302        C325   1.274       .  A
O303       Mg317   2.123   1_556  S
O304       Mg334   2.415   1_554  S
C305        C350   1.477       .  S
C305        O318   1.280       .  A
C305        O310   1.265       .  A
C306        C498   1.487   1_556  S
C306        O333   1.267   1_556  A
Mg307       O314   2.120       .  S
Mg307       O315   2.117       .  S
Mg307       O308   2.236       .  S
Mg307       O309   2.294   1_556  S
Mg307       O336   2.206   1_556  S
O309        C313   1.275       .  A
O310       Mg317   2.233       .  S
O311        C330   1.281       .  A
O312        C332   1.289       .  A
O312       Mg328   2.413       .  S
O314       Mg328   2.158       .  S
O314        C325   1.242       .  S
O315       Mg334   2.096       .  S
O316       Mg328   2.303       .  S
Mg317       O333   2.226       .  S
O318       Mg334   2.298   1_554  S
H319        C324   1.081       .  S
O320       Mg328   2.100       .  S
O320        C323   1.239       .  S
H321        C323   1.081       .  S
H322        C325   1.081       .  S
O327       Mg334   2.307       .  S
C330        C339   1.478       .  S
C330        O335   1.264       .  A
O331        C332   1.265       .  A
C332        C573   1.482       .  S
C337        C338   1.400       .  A
C337        C342   1.405       .  A
C337        C690   1.468       .  S
C338        C339   1.386       .  A
C338        H343   1.085       .  S
C339        C340   1.420       .  A
C340        C341   1.408       .  A
C340        H344   1.084       .  S
C341        C342   1.408       .  A
C341        C531   1.483       .  S
C342        H345   1.084       .  S
C346        C347   1.407       .  A
C346        C351   1.397       .  A
C346        C821   1.469       .  S
C347        C348   1.409       .  A
C347        H352   1.084       .  S
C348        C349   1.409   1_554  A
C348        C482   1.485   1_554  S
C349        C350   1.420   1_556  A
C349        H353   1.084       .  S
C350        C351   1.386       .  A
C351        H354   1.085       .  S
C355        C356   1.400       .  A
C355        C360   1.406       .  A
C355       C1029   1.470       .  S
C356        C357   1.387       .  A
C356        H361   1.085       .  S
C357        C358   1.421       .  A
C358        C359   1.410       .  A
C358        H362   1.084       .  S
C359        C360   1.410       .  A
C359        C373   1.487       .  S
C360        H363   1.084       .  S
O364       Mg366   2.131       .  S
O364       Mg372   2.166       .  S
O364        C399   1.242       .  S
C365        H404   1.081       .  S
C365        O378   1.239       .  S
C365        O402   1.271       .  A
Mg366       O395   2.125   1_455  S
Mg366       O410   2.217       .  S
Mg366       O406   2.218       .  S
Mg366       O377   2.289   1_455  S
O367       Mg409   2.164       .  S
O367       Mg392   2.130       .  S
O367        C388   1.242       .  S
O368        C399   1.274   1_556  A
O368       Mg392   2.290   1_455  S
C369        C416   1.477       .  S
C369        O371   1.280       .  A
C369        O383   1.263       .  A
O370        C398   1.272       .  A
O370       Mg372   2.307   1_655  S
O371       Mg403   2.298       .  S
Mg372       O378   2.095   1_455  S
Mg372       O386   2.304       .  S
Mg372       O374   2.415       .  S
C373        O411   1.265       .  A
C373        O379   1.291       .  A
O374        C381   1.289   1_554  A
H375        C388   1.081       .  S
C376        H401   1.081       .  S
C376        O390   1.238       .  S
C376        O391   1.271       .  A
O377        C400   1.274       .  A
O378       Mg392   2.120   1_554  S
O379       Mg409   2.427       .  S
C380        C434   1.483       .  S
C380        O393   1.284       .  A
C380        O385   1.264       .  A
C381        O408   1.265       .  A
Mg382       O389   2.129       .  S
Mg382       O390   2.126       .  S
Mg382       O383   2.224       .  S
Mg382       O384   2.286   1_554  S
Mg382       O411   2.206   1_554  S
O384        C388   1.274       .  A
O385       Mg392   2.227       .  S
O386        C405   1.280       .  A
O387        C407   1.287       .  A
O387       Mg403   2.405       .  S
O389       Mg403   2.161       .  S
O389        C400   1.241       .  S
O390       Mg409   2.101   1_554  S
O391       Mg403   2.303       .  S
Mg392       O408   2.216   1_655  S
O393       Mg409   2.317       .  S
H394        C399   1.081       .  S
O395       Mg403   2.099       .  S
O395        C398   1.239       .  S
H396        C398   1.081       .  S
H397        C400   1.081       .  S
O402       Mg409   2.302   1_554  S
C405        C425   1.477       .  S
C405        O410   1.263       .  A
O406        C407   1.266   1_455  A
C412        C413   1.411       .  A
C412        C417   1.402       .  A
C412        C917   1.476       .  S
C413        C414   1.410       .  A
C413        H418   1.082       .  S
C414        C415   1.407       .  A
C415        C416   1.416       .  A
C415        H419   1.084       .  S
C416        C417   1.384       .  A
C417        H420   1.085       .  S
C421        C422   1.408       .  A
C421        C426   1.400       .  A
C421        C898   1.471       .  S
C422        C423   1.410   1_455  A
C422        H427   1.084       .  S
C423        C424   1.406       .  A
C424        C425   1.419   1_655  A
C424        H428   1.084       .  S
C425        C426   1.386       .  A
C426        H429   1.085       .  S
C430        C431   1.410       .  A
C430        C435   1.401       .  A
C430        C789   1.472       .  S
C431        C432   1.411       .  A
C431        H436   1.084       .  S
C432        C433   1.411       .  A
C433        C434   1.421       .  A
C433        H437   1.084       .  S
C434        C435   1.385       .  A
C435        H438   1.085       .  S
O439       Mg441   2.128       .  S
O439       Mg447   2.160       .  S
O439        C474   1.242       .  S
C440        H479   1.081       .  S
C440        O453   1.239       .  S
C440        O477   1.271       .  A
Mg441       O470   2.123   1_554  S
Mg441       O485   2.225       .  S
Mg441       O481   2.209       .  S
Mg441       O452   2.288   1_554  S
O442       Mg484   2.159       .  S
O442       Mg467   2.123       .  S
O442        C463   1.242       .  S
O443        C474   1.274   1_565  A
O443       Mg467   2.288   1_554  S
C444        C489   1.479       .  S
C444        O446   1.281       .  A
C444        O458   1.264       .  A
O445        C473   1.271       .  A
O445       Mg447   2.304   1_556  S
O446       Mg478   2.306       .  S
Mg447       O453   2.096   1_554  S
Mg447       O461   2.297       .  S
Mg447       O449   2.405       .  S
C448        C657   1.482       .  S
C448        O486   1.266       .  A
C448        O454   1.288       .  A
O449        C456   1.287   1_545  A
H450        C463   1.081       .  S
C451        H476   1.081       .  S
C451        O465   1.239       .  S
C451        O466   1.271       .  A
O452        C475   1.274       .  A
O453       Mg467   2.124   1_545  S
O454       Mg484   2.407       .  S
C455        C509   1.480       .  S
C455        O468   1.281       .  A
C455        O460   1.263       .  A
C456        O483   1.264       .  A
Mg457       O464   2.132       .  S
Mg457       O465   2.124       .  S
Mg457       O458   2.223       .  S
Mg457       O459   2.288   1_545  S
Mg457       O486   2.217   1_545  S
O459        C463   1.274       .  A
O460       Mg467   2.221       .  S
O461        C480   1.280       .  A
O462        C482   1.289       .  A
O462       Mg478   2.420       .  S
O464       Mg478   2.165       .  S
O464        C475   1.242       .  S
O465       Mg484   2.101   1_545  S
O466       Mg478   2.306       .  S
Mg467       O483   2.203   1_556  S
O468       Mg484   2.307       .  S
H469        C474   1.081       .  S
O470       Mg478   2.097       .  S
O470        C473   1.239       .  S
H471        C473   1.081       .  S
H472        C475   1.081       .  S
O477       Mg484   2.302   1_545  S
C480        C500   1.476       .  S
C480        O485   1.263       .  A
O481        C482   1.265   1_554  A
C487        C488   1.401       .  A
C487        C492   1.410       .  A
C487        C773   1.473       .  S
C488        C489   1.386       .  A
C488        H493   1.085       .  S
C489        C490   1.418       .  A
C490        C491   1.406       .  A
C490        H494   1.084       .  S
C491        C492   1.412       .  A
C491        C606   1.486       .  S
C492        H495   1.083       .  S
C496        C497   1.412       .  A
C496        C501   1.398       .  A
C496        C869   1.474       .  S
C497        C498   1.412       .  A
C497        H502   1.083       .  S
C498        C499   1.408       .  A
C499        C500   1.417       .  A
C499        H503   1.084   1_554  S
C500        C501   1.384       .  A
C501        H504   1.085       .  S
C505        C506   1.410       .  A
C505        C510   1.402       .  A
C505        C738   1.475       .  S
C506        C507   1.411       .  A
C506        H511   1.083       .  S
C507        C508   1.408       .  A
C508        C509   1.418       .  A
C508        H512   1.084       .  S
C509        C510   1.384       .  A
C510        H513   1.085       .  S
O514       Mg516   2.121       .  S
O514       Mg522   2.162       .  S
O514        C549   1.241       .  S
C515        H554   1.081       .  S
C515        O528   1.239       .  S
C515        O552   1.271       .  A
Mg516       O545   2.127       .  S
Mg516       O560   2.220       .  S
Mg516       O556   2.208       .  S
Mg516       O527   2.284       .  S
O517       Mg559   2.161       .  S
O517       Mg542   2.129       .  S
O517        C538   1.242       .  S
O518        C549   1.273       .  A
O518       Mg542   2.284       .  S
C519        C564   1.482       .  S
C519        O521   1.282       .  A
C519        O533   1.264       .  A
O520        C548   1.270       .  A
O520       Mg522   2.296       .  S
O521       Mg553   2.313       .  S
Mg522       O528   2.103       .  S
Mg522       O536   2.316       .  S
Mg522       O524   2.417       .  S
C523        C639   1.480       .  S
C523        O561   1.264       .  A
C523        O529   1.287       .  A
O524        C531   1.290       .  A
H525        C538   1.081       .  S
C526        H551   1.081       .  S
C526        O540   1.239       .  S
C526        O541   1.271       .  A
O527        C550   1.274       .  A
O528       Mg542   2.126       .  S
O529       Mg559   2.406       .  S
C530        C575   1.476       .  S
C530        O543   1.279       .  A
C530        O535   1.263       .  A
C531        O558   1.265       .  A
Mg532       O539   2.123       .  S
Mg532       O540   2.120       .  S
Mg532       O533   2.226       .  S
Mg532       O534   2.292       .  S
Mg532       O561   2.206       .  S
O534        C538   1.274       .  A
O535       Mg542   2.222       .  S
O536        C555   1.283       .  A
O537        C557   1.290       .  A
O537       Mg553   2.412       .  S
O539       Mg553   2.163       .  S
O539        C550   1.243       .  S
O540       Mg559   2.097       .  S
O541       Mg553   2.305       .  S
Mg542       O558   2.207       .  S
O543       Mg559   2.300       .  S
H544        C549   1.081       .  S
O545       Mg553   2.089       .  S
O545        C548   1.239       .  S
H546        C548   1.081       .  S
H547        C550   1.081       .  S
O552       Mg559   2.306       .  S
C555        C584   1.481       .  S
C555        O560   1.263       .  A
O556        C557   1.265       .  A
C562        C563   1.401       .  A
C562        C567   1.404       .  A
C562        C949   1.465       .  S
C563        C564   1.386       .  A
C563        H568   1.085       .  S
C564        C565   1.421       .  A
C565        C566   1.409       .  A
C565        H569   1.084       .  S
C566        C567   1.406       .  A
C566        C598   1.482       .  S
C567        H570   1.084       .  S
C571        C572   1.408       .  A
C571        C576   1.401       .  A
C571        C757   1.472       .  S
C572        C573   1.410       .  A
C572        H577   1.083       .  S
C573        C574   1.405       .  A
C574        C575   1.417       .  A
C574        H578   1.084       .  S
C575        C576   1.386       .  A
C576        H579   1.085       .  S
C580        C581   1.413       .  A
C580        C585   1.401       .  A
C580        C805   1.477       .  S
C581        C582   1.413       .  A
C581        H586   1.083       .  S
C582        C583   1.410       .  A
C583        C584   1.420       .  A
C583        H587   1.084       .  S
C584        C585   1.384       .  A
C585        H588   1.085       .  S
O589       Mg591   2.123       .  S
O589       Mg597   2.155   1_545  S
O589        C624   1.243       .  S
C590        H629   1.081       .  S
C590        O603   1.238       .  S
C590        O627   1.269       .  A
Mg591       O620   2.115   1_545  S
Mg591       O635   2.252       .  S
Mg591       O631   2.224       .  S
Mg591       O602   2.296   1_545  S
O592       Mg634   2.164       .  S
O592       Mg617   2.126       .  S
O592        C613   1.241       .  S
O593        C624   1.274       .  A
O593       Mg617   2.284   1_545  S
C594        C641   1.479       .  S
C594        O596   1.280       .  A
C594        O608   1.263       .  A
O595        C623   1.273       .  A
O595       Mg597   2.309       .  S
O596       Mg628   2.304       .  S
Mg597       O603   2.082       .  S
Mg597       O611   2.295   1_565  S
Mg597       O599   2.420   1_565  S
C598        O636   1.266       .  A
C598        O604   1.288       .  A
O599        C606   1.290       .  A
H600        C613   1.081       .  S
C601        H626   1.081       .  S
C601        O615   1.239       .  S
C601        O616   1.272       .  A
O602        C625   1.276       .  A
O603       Mg617   2.121       .  S
O604       Mg634   2.406       .  S
C605        C659   1.478       .  S
C605        O618   1.282       .  A
C605        O610   1.264       .  A
C606        O633   1.266       .  A
Mg607       O614   2.135       .  S
Mg607       O615   2.127       .  S
Mg607       O608   2.223       .  S
Mg607       O609   2.286       .  S
Mg607       O636   2.217       .  S
O609        C613   1.273       .  A
O610       Mg617   2.219       .  S
O611        C630   1.281       .  A
O612        C632   1.289       .  A
O612       Mg628   2.418       .  S
O614       Mg628   2.161       .  S
O614        C625   1.243       .  S
O615       Mg634   2.105       .  S
O616       Mg628   2.311       .  S
Mg617       O633   2.216   1_565  S
O618       Mg634   2.306       .  S
H619        C624   1.081       .  S
O620       Mg628   2.097       .  S
O620        C623   1.240       .  S
H621        C623   1.081       .  S
H622        C625   1.081       .  S
O627       Mg634   2.293       .  S
C630        C650   1.480       .  S
C630        O635   1.268       .  A
O631        C632   1.267   1_545  A
C637        C638   1.405       .  A
C637        C642   1.401       .  A
C637        C997   1.468       .  S
C638        C639   1.407       .  A
C638        H643   1.084       .  S
C639        C640   1.407       .  A
C640        C641   1.418       .  A
C640        H644   1.084       .  S
C641        C642   1.386       .  A
C642        H645   1.085       .  S
C646        C647   1.415       .  A
C646        C651   1.401       .  A
C646        C677   1.486       .  S
C647        C648   1.416   1_545  A
C647        H652   1.083       .  S
C648        C649   1.409       .  A
C649        C650   1.415   1_565  A
C649        H653   1.084       .  S
C650        C651   1.383       .  A
C651        H654   1.084       .  S
C655        C656   1.407       .  A
C655        C660   1.401       .  A
C655       C1045   1.469       .  S
C656        C657   1.408       .  A
C656        H661   1.083       .  S
C657        C658   1.408       .  A
C658        C659   1.418       .  A
C658        H662   1.084       .  S
C659        C660   1.384       .  A
C660        H663   1.085       .  S
C664        C665   1.397       .  A
C664        C669   1.412       .  A
C664        C709   1.482       .  S
C665        C666   1.395       .  A
C665        H670   1.084       .  S
C666        C667   1.393       .  A
C666        C693   1.473       .  S
C667        C668   1.412       .  A
C667        H671   1.082       .  S
C668        C669   1.413       .  A
C668        C674   1.508       .  S
C669        H672   1.079       .  S
C673        C674   1.408       .  A
C673        C678   1.387       .  A
C673        H680   1.080       .  S
C674        C675   1.429       .  A
C675        C676   1.416       .  A
C675        C682   1.513       .  S
C676        C677   1.403       .  A
C676        H681   1.084       .  S
C677        C678   1.417       .  A
C678        C679   1.522       .  S
C679        F683   1.384       .  S
C679        F684   1.383       .  S
C679        F685   1.384       .  S
C682        F686   1.382       .  S
C682        F687   1.383       .  S
C682        F688   1.384       .  S
C689        C690   1.405       .  A
C689        C694   1.404       .  A
C689        H696   1.084       .  S
C690        C691   1.410       .  A
C691        C692   1.402       .  A
C691        C698   1.519       .  S
C692        C693   1.407       .  A
C692        H697   1.084       .  S
C693        C694   1.409       .  A
C694        C695   1.515       .  S
C695        F699   1.384       .  S
C695        F700   1.382       .  S
C695        F701   1.383       .  S
C698        F702   1.383       .  S
C698        F703   1.383       .  S
C698        F704   1.384       .  S
C705        C706   1.400       .  A
C705        C710   1.399       .  A
C705        H712   1.085       .  S
C706        C707   1.408       .  A
C707        C708   1.407       .  A
C707        C714   1.516       .  S
C708        C709   1.409       .  A
C708        H713   1.083       .  S
C709        C710   1.418       .  A
C710        C711   1.517       .  S
C711        F715   1.384       .  S
C711        F716   1.382       .  S
C711        F717   1.383       .  S
C714        F718   1.383       .  S
C714        F719   1.384       .  S
C714        F720   1.384       .  S
C721        C722   1.401       .  A
C721        C726   1.402       .  A
C721        H728   1.083       .  S
C722        C723   1.419       .  A
C723        C724   1.405       .  A
C723        C730   1.520       .  S
C724        C725   1.399       .  A
C724        H729   1.083       .  S
C725        C726   1.417       .  A
C726        C727   1.521       .  S
C727        F731   1.385       .  S
C727        F732   1.382       .  S
C727        F733   1.383       .  S
C730        F734   1.381       .  S
C730        F735   1.383       .  S
C730        F736   1.385       .  S
C737        C738   1.402       .  A
C737        C742   1.404       .  A
C737        H744   1.083       .  S
C738        C739   1.417       .  A
C739        C740   1.405       .  A
C739        C746   1.518       .  S
C740        C741   1.401       .  A
C740        H745   1.083       .  S
C741        C742   1.418       .  A
C742        C743   1.520       .  S
C743        F747   1.385       .  S
C743        F748   1.381       .  S
C743        F749   1.381       .  S
C746        F750   1.382       .  S
C746        F751   1.383       .  S
C746        F752   1.385       .  S
C753        C754   1.403       .  A
C753        C758   1.405       .  A
C753        H760   1.083       .  S
C754        C755   1.421       .  A
C755        C756   1.405       .  A
C755        C762   1.519       .  S
C756        C757   1.399       .  A
C756        H761   1.083       .  S
C757        C758   1.415       .  A
C758        C759   1.520       .  S
C759        F763   1.385       .  S
C759        F764   1.382       .  S
C759        F765   1.383       .  S
C762        F766   1.381       .  S
C762        F767   1.381       .  S
C762        F768   1.385       .  S
C769        C770   1.404       .  A
C769        C774   1.405       .  A
C769        H776   1.083       .  S
C770        C771   1.416       .  A
C771        C772   1.405       .  A
C771        C778   1.518       .  S
C772        C773   1.403       .  A
C772        H777   1.084       .  S
C773        C774   1.413       .  A
C774        C775   1.517       .  S
C775        F779   1.384       .  S
C775        F780   1.382       .  S
C775        F781   1.383       .  S
C778        F782   1.381       .  S
C778        F783   1.383       .  S
C778        F784   1.385       .  S
C785        C786   1.404       .  A
C785        C790   1.404       .  A
C785        H792   1.083       .  S
C786        C787   1.415       .  A
C787        C788   1.405       .  A
C787        C794   1.518       .  S
C788        C789   1.403       .  A
C788        H793   1.083       .  S
C789        C790   1.412       .  A
C790        C791   1.517       .  S
C791        F795   1.384       .  S
C791        F796   1.382       .  S
C791        F797   1.383       .  S
C794        F798   1.381       .  S
C794        F799   1.383       .  S
C794        F800   1.385       .  S
C801        C802   1.402       .  A
C801        C806   1.405       .  A
C801        H808   1.083       .  S
C802        C803   1.419       .  A
C803        C804   1.406       .  A
C803        C810   1.521       .  S
C804        C805   1.403       .  A
C804        H809   1.083       .  S
C805        C806   1.417       .  A
C806        C807   1.519       .  S
C807        F811   1.385       .  S
C807        F812   1.382       .  S
C807        F813   1.383       .  S
C810        F814   1.381       .  S
C810        F815   1.383       .  S
C810        F816   1.385       .  S
C817        C818   1.402       .  A
C817        C822   1.400       .  A
C817        H824   1.083       .  S
C818        C819   1.422       .  A
C819        C820   1.408       .  A
C819        C826   1.520       .  S
C820        C821   1.399       .  A
C820        H825   1.083       .  S
C821        C822   1.416       .  A
C822        C823   1.522       .  S
C823        F827   1.385       .  S
C823        F828   1.382       .  S
C823        F829   1.383       .  S
C826        F830   1.381       .  S
C826        F831   1.383       .  S
C826        F832   1.385       .  S
C833        C834   1.410       .  A
C833        C838   1.400       .  A
C833        H840   1.070       .  S
C834        C835   1.416       .  A
C835        C836   1.403       .  A
C835        C842   1.515       .  S
C836        C837   1.403       .  A
C836        H841   1.084       .  S
C837        C838   1.405       .  A
C838        C839   1.519       .  S
C839        F843   1.385       .  S
C839        F844   1.383       .  S
C839        F845   1.383       .  S
C842        F846   1.383       .  S
C842        F847   1.383       .  S
C842        F848   1.383       .  S
C849        C850   1.412       .  A
C849        C854   1.420       .  A
C849        H856   1.082       .  S
C850        C851   1.410       .  A
C851        C852   1.383       .  A
C851        C858   1.519       .  S
C852        C853   1.408       .  A
C852        H857   1.085       .  S
C853        C854   1.422       .  A
C854        C855   1.514       .  S
C855        F859   1.384       .  S
C855        F860   1.383       .  S
C855        F861   1.381       .  S
C858        F862   1.383       .  S
C858        F863   1.382       .  S
C858        F864   1.385       .  S
C865        C866   1.400       .  A
C865        C870   1.403       .  A
C865        H872   1.083       .  S
C866        C867   1.415       .  A
C867        C868   1.407       .  A
C867        C874   1.518       .  S
C868        C869   1.405       .  A
C868        H873   1.083       .  S
C869        C870   1.417       .  A
C870        C871   1.521       .  S
C871        F875   1.385       .  S
C871        F876   1.382       .  S
C871        F877   1.383       .  S
C874        F878   1.381       .  S
C874        F879   1.383       .  S
C874        F880   1.385       .  S
C881        C882   1.401       .  A
C881        C886   1.417       .  A
C881        H888   1.084       .  S
C882        C883   1.415       .  A
C883        C884   1.390       .  A
C883        C890   1.521       .  S
C884        C885   1.410       .  A
C884        H889   1.078       .  S
C885        C886   1.432       .  A
C886        C887   1.516       .  S
C887        F891   1.384       .  S
C887        F892   1.383       .  S
C887        F893   1.383       .  S
C890        F894   1.382       .  S
C890        F895   1.383       .  S
C890        F896   1.384       .  S
C897        C898   1.407       .  A
C897        C902   1.407       .  A
C897        H904   1.083       .  S
C898        C899   1.413       .  A
C899        C900   1.398       .  A
C899        C906   1.517       .  S
C900        C901   1.403       .  A
C900        H905   1.085       .  S
C901        C902   1.409       .  A
C902        C903   1.514       .  S
C903        F907   1.384       .  S
C903        F908   1.383       .  S
C903        F909   1.383       .  S
C906        F910   1.383       .  S
C906        F911   1.384       .  S
C906        F912   1.383       .  S
C913        C914   1.400       .  A
C913        C918   1.405       .  A
C913        H920   1.083       .  S
C914        C915   1.416       .  A
C915        C916   1.403       .  A
C915        C922   1.521       .  S
C916        C917   1.404       .  A
C916        H921   1.083       .  S
C917        C918   1.419       .  A
C918        C919   1.519       .  S
C919        F923   1.385       .  S
C919        F924   1.382       .  S
C919        F925   1.383       .  S
C922        F926   1.381       .  S
C922        F927   1.384       .  S
C922        F928   1.385       .  S
C929        C930   1.410       .  A
C929        C934   1.405       .  A
C929        H936   1.082       .  S
C930        C931   1.421       .  A
C931        C932   1.400       .  A
C931        C938   1.519       .  S
C932        C933   1.400       .  A
C932        H937   1.085       .  S
C933        C934   1.406       .  A
C934        C935   1.514       .  S
C935        F939   1.384       .  S
C935        F940   1.383       .  S
C935        F941   1.384       .  S
C938        F942   1.384       .  S
C938        F943   1.383       .  S
C938        F944   1.383       .  S
C945        C946   1.407       .  A
C945        C950   1.405       .  A
C945        H952   1.083       .  S
C946        C947   1.417       .  A
C947        C948   1.397       .  A
C947        C954   1.518       .  S
C948        C949   1.400       .  A
C948        H953   1.085       .  S
C949        C950   1.408       .  A
C950        C951   1.515       .  S
C951        F955   1.384       .  S
C951        F956   1.383       .  S
C951        F957   1.384       .  S
C954        F958   1.383       .  S
C954        F959   1.383       .  S
C954        F960   1.384       .  S
C961        C962   1.402       .  A
C961        C966   1.402       .  A
C961        H968   1.083       .  S
C962        C963   1.421       .  A
C963        C964   1.404       .  A
C963        C970   1.521       .  S
C964        C965   1.399       .  A
C964        H969   1.083       .  S
C965        C966   1.416       .  A
C966        C967   1.521       .  S
C967        F971   1.385       .  S
C967        F972   1.382       .  S
C967        F973   1.383       .  S
C970        F974   1.381       .  S
C970        F975   1.382       .  S
C970        F976   1.385       .  S
C977        C978   1.402       .  A
C977        C982   1.402       .  A
C977        H984   1.083       .  S
C978        C979   1.422       .  A
C979        C980   1.404       .  A
C979        C986   1.521       .  S
C980        C981   1.398       .  A
C980        H985   1.083       .  S
C981        C982   1.416       .  A
C982        C983   1.521       .  S
C983        F987   1.385       .  S
C983        F988   1.382       .  S
C983        F989   1.384       .  S
C986        F990   1.381       .  S
C986        F991   1.382       .  S
C986        F992   1.385       .  S
C993        C994   1.402       .  A
C993        C998   1.402       .  A
C993       H1000   1.083       .  S
C994        C995   1.421       .  A
C995        C996   1.404       .  A
C995       C1002   1.521       .  S
C996        C997   1.399       .  A
C996       H1001   1.083       .  S
C997        C998   1.416       .  A
C998        C999   1.520       .  S
C999       F1003   1.385       .  S
C999       F1004   1.382       .  S
C999       F1005   1.383       .  S
C1002      F1006   1.381       .  S
C1002      F1007   1.382       .  S
C1002      F1008   1.385       .  S
C1009      C1010   1.405       .  A
C1009      C1014   1.403       .  A
C1009      H1016   1.083       .  S
C1010      C1011   1.424       .  A
C1011      C1012   1.405       .  A
C1011      C1018   1.520       .  S
C1012      C1013   1.397       .  A
C1012      H1017   1.083       .  S
C1013      C1014   1.414       .  A
C1014      C1015   1.520       .  S
C1015      F1019   1.385       .  S
C1015      F1020   1.382       .  S
C1015      F1021   1.383       .  S
C1018      F1022   1.381       .  S
C1018      F1023   1.381       .  S
C1018      F1024   1.385       .  S
C1025      C1026   1.408       .  A
C1025      C1030   1.406       .  A
C1025      H1032   1.083       .  S
C1026      C1027   1.418       .  A
C1027      C1028   1.400       .  A
C1027      C1034   1.518       .  S
C1028      C1029   1.401       .  A
C1028      H1033   1.085       .  S
C1029      C1030   1.409       .  A
C1030      C1031   1.515       .  S
C1031      F1035   1.384       .  S
C1031      F1036   1.383       .  S
C1031      F1037   1.384       .  S
C1034      F1038   1.384       .  S
C1034      F1039   1.383       .  S
C1034      F1040   1.383       .  S
C1041      C1042   1.400       .  A
C1041      C1046   1.402       .  A
C1041      H1048   1.083       .  S
C1042      C1043   1.419       .  A
C1043      C1044   1.404       .  A
C1043      C1050   1.521       .  S
C1044      C1045   1.401       .  A
C1044      H1049   1.083       .  S
C1045      C1046   1.417       .  A
C1046      C1047   1.520       .  S
C1047      F1051   1.385       .  S
C1047      F1052   1.382       .  S
C1047      F1053   1.383       .  S
C1050      F1054   1.381       .  S
C1050      F1055   1.382       .  S
C1050      F1056   1.385       .  S
