geometry optimzed in LAMMPS
_audit_creation_date              2020-11-30 
_audit_creation_method            'lammps2cif' 
_symmetry_space_group_name_H-M    'P1' 
_symmetry_Int_Tables_number       1 
_symmetry_cell_setting            triclinic 
loop_ 
_symmetry_equiv_pos_as_xyz 
  x,y,z 
_cell_length_a                    41.82524595 
_cell_length_b                    24.060366417868384 
_cell_length_c                    24.07196887372466 
_cell_angle_alpha                 89.7886505177946 
_cell_angle_beta                  90.62578191667 
_cell_angle_gamma                 90.21189450409796 
loop_ 
_atom_site_label 
_atom_site_type_symbol 
_atom_site_fract_x 
_atom_site_fract_y 
_atom_site_fract_z 
_atom_site_charge 
C1          C  0.00370294  0.09226404  0.16618143     0.83300
N2          N  0.02096404  0.07982902  0.12023553    -0.75000
C3          C  0.04910340  0.10636637  0.11058580     0.85700
N4          N  0.05986132  0.14524680  0.14680116    -0.75000
C5          C  0.04279067  0.15769841  0.19261539     0.85800
N6          N  0.01468073  0.13118363  0.20251552    -0.76700
Zn7        Zn  0.86175673  0.93805076  0.16640084     1.49700
Zn8        Zn  0.92274554  0.87481161  0.11456907     1.49400
Zn9        Zn  0.86254390  0.80389527  0.14849435     1.49100
Zn10       Zn  0.86043359  0.88614832  0.04414432     1.49500
O11         O  0.87639877  0.87599175  0.11949998    -1.81100
O12         O  0.90013260  0.99016417  0.18305527    -0.71700
O13         O  0.94269483  0.81193243  0.15666243    -0.71500
O14         O  0.83794692  0.81498943  0.21944188    -0.71000
O15         O  0.94043641  0.94555052  0.14301623    -0.71700
O16         O  0.84147078  0.90578707  0.23774926    -0.71300
O17         O  0.90063030  0.75742224  0.17160128    -0.71900
O18         O  0.83827301  0.81767667  0.01809907    -0.71300
O19         O  0.93746188  0.86789144  0.03613374    -0.72000
O20         O  0.83778766  0.75937803  0.08998898    -0.71400
O21         O  0.89502029  0.89596808  0.98767963    -0.71900
O22         O  0.83004136  0.94953218  0.03940681    -0.71800
O23         O  0.82813973  0.98525567  0.12430237    -0.71600
C24         C  0.92944164  0.98710412  0.16873385     0.80200
C25         C  0.93053376  0.76695171  0.17434844     0.80700
C26         C  0.83297499  0.85631119  0.25122964     0.79700
C27         C  0.83146294  0.77076831  0.03920133     0.80000
C28         C  0.92404345  0.88088487  0.99042192     0.81200
C29         C  0.81904024  0.98482421  0.07345576     0.80200
C30         C  0.76620770  0.55767204  0.95503586     0.83300
N31         N  0.78019493  0.55536786  0.90410429    -0.75000
C32         C  0.80310100  0.59340179  0.89025261     0.85700
N33         N  0.81174556  0.63328650  0.92728364    -0.75000
C34         C  0.79758534  0.63615848  0.97764072     0.85800
N35         N  0.77527895  0.59795798  0.99143819    -0.76700
C36         C  0.02184005  0.59251627  0.28953341     0.83300
N37         N  0.00958372  0.63017125  0.25284918    -0.75000
C38         C  0.97999829  0.65156483  0.26164307     0.85700
N39         N  0.96299735  0.63539546  0.30651188    -0.75000
C40         C  0.97524271  0.59770470  0.34261188     0.85800
N41         N  0.00464547  0.57644908  0.33424218    -0.76700
Zn42       Zn  0.13361302  0.30766652  0.37603753     1.49700
Zn43       Zn  0.13890509  0.43919054  0.38783447     1.49400
Zn44       Zn  0.19476806  0.37195974  0.32571617     1.49100
Zn45       Zn  0.12478449  0.38309187  0.26989994     1.49500
O46         O  0.14837635  0.37568398  0.33989974    -1.81100
O47         O  0.10881042  0.32425081  0.44492092    -0.71700
O48         O  0.17959296  0.47667192  0.41492621    -0.71500
O49         O  0.21354246  0.30042588  0.35985472    -0.71000
O50         O  0.11289137  0.41592134  0.45442178    -0.71700
O51         O  0.17084561  0.26014963  0.39710480    -0.68900
O52         O  0.21718666  0.43793254  0.36289129    -0.71900
O53         O  0.15451491  0.37884014  0.20615144    -0.71300
O54         O  0.11180137  0.49536905  0.34608317    -0.72000
O55         O  0.20368679  0.37253141  0.24184593    -0.71400
O56         O  0.10056585  0.45467443  0.26520297    -0.71900
O57         O  0.09369568  0.32043821  0.25740731    -0.71800
O58         O  0.10443502  0.26226406  0.32692622    -0.71600
C59         C  0.10260117  0.36885321  0.47066672     0.80200
C60         C  0.20849380  0.47342362  0.39899985     0.80700
C61         C  0.20075670  0.26113785  0.38782786     0.79700
C62         C  0.18452054  0.37435203  0.20018002     0.80000
C63         C  0.09775472  0.49481635  0.29889269     0.81200
C64         C  0.08971271  0.27424088  0.28207544     0.80200
C65         C  0.26942199  0.07395872  0.48941724     0.83300
N66         N  0.26152138  0.06513006  0.54363501    -0.75000
C67         C  0.23618917  0.09204231  0.56606722     0.85700
N68         N  0.21955628  0.12889813  0.53442817    -0.75000
C69         C  0.22799321  0.13988697  0.48132427     0.85800
N70         N  0.25273038  0.11179856  0.45838861    -0.76700
C71         C  0.00168008  0.36283106  0.66091813     0.83300
N72         N  0.01955393  0.37445793  0.61550104    -0.75000
C73         C  0.04760963  0.34779328  0.60753704     0.85700
N74         N  0.05777062  0.30940984  0.64486876    -0.75000
C75         C  0.04010564  0.29756821  0.69028733     0.85800
N76         N  0.01194936  0.32431256  0.69858191    -0.76700
Zn77       Zn  0.88306145  0.51445335  0.56388921     1.49700
Zn78       Zn  0.82909493  0.59543242  0.61025270     1.49400
Zn79       Zn  0.89285509  0.57204334  0.68440958     1.49100
Zn80       Zn  0.89836093  0.64290162  0.57531476     1.49500
O81         O  0.87542344  0.58092465  0.60899440    -1.81100
O82         O  0.84189800  0.47563927  0.54043114    -0.71700
O83         O  0.81358525  0.59631720  0.69058639    -0.71500
O84         O  0.91990410  0.50204709  0.68885047    -0.71000
O85         O  0.80458951  0.53154445  0.57393602    -0.71700
O86         O  0.91172742  0.46193509  0.60644486    -0.71300
O87         O  0.85656274  0.57002742  0.73962518    -0.71900
O88         O  0.92573375  0.68698162  0.62924642    -0.71300
O89         O  0.81864432  0.66739268  0.56611959    -0.72000
O90         O  0.92188921  0.63696713  0.70658735    -0.71400
O91         O  0.86722347  0.69393639  0.53952893    -0.71900
O92         O  0.92565852  0.61822057  0.51292145    -0.71800
O93         O  0.90739730  0.53326243  0.49445199    -0.71600
C94         C  0.81262879  0.48776441  0.54798641     0.80200
C95         C  0.82694742  0.58270782  0.73663380     0.80700
C96         C  0.92516343  0.46333397  0.65413038     0.79700
C97         C  0.93269856  0.67884666  0.68014157     0.80000
C98         C  0.83708766  0.69982974  0.53873656     0.81200
C99         C  0.92457355  0.57524174  0.48259175     0.80200
C100        C  0.75466221  0.89620214  0.46358070     0.83300
N101        N  0.76354860  0.85058959  0.49315806    -0.75000
C102        C  0.78540050  0.81485539  0.47273235     0.85700
N103        N  0.79853337  0.82505185  0.42201410    -0.75000
C104        C  0.78959893  0.87064415  0.39183373     0.85800
N105        N  0.76760402  0.90600843  0.41293549    -0.76700
C106        C  0.02126595  0.85868165  0.79816853     0.83300
N107        N  0.00363168  0.87378109  0.84249151    -0.75000
C108        C  0.97481974  0.84999424  0.85155769     0.85700
N109        N  0.96348210  0.81062817  0.81637447    -0.75000
C110        C  0.98083140  0.79504987  0.77179901     0.85800
N111        N  0.00988837  0.81921321  0.76237292    -0.76700
Zn112      Zn  0.14023050  0.02010631  0.88785351     1.49700
Zn113      Zn  0.19359990  0.09311310  0.82234668     1.49400
Zn114      Zn  0.12394480  0.07436324  0.76857969     1.49100
Zn115      Zn  0.13193228  0.15125604  0.87558824     1.49500
O116        O  0.14758694  0.08444498  0.83851607    -1.81100
O117        O  0.18256515  0.98519750  0.91135791    -0.71700
O118        O  0.20254555  0.09172634  0.73868737    -0.71500
O119        O  0.09876277  0.00219701  0.76822507    -0.71000
O120        O  0.21786424  0.02974808  0.85831330    -0.71700
O121        O  0.11210290  0.96253439  0.84894082    -0.71300
O122        O  0.15394193  0.07658873  0.70332384    -0.71900
O123        O  0.10173762  0.19477794  0.82634126    -0.71300
O124        O  0.21134098  0.16532655  0.85609546    -0.72000
O125        O  0.09295567  0.13738278  0.75550509    -0.71400
O126        O  0.16871885  0.20106136  0.89710202    -0.71900
O127        O  0.10754312  0.13232493  0.94498208    -0.71800
O128        O  0.11540985  0.04168720  0.95668808    -0.71600
C129        C  0.21099532  0.99232521  0.89388505     0.80200
C130        C  0.18381339  0.08461555  0.69707288     0.80700
C131        C  0.09661491  0.96240499  0.80302027     0.79700
C132        C  0.08775353  0.18273698  0.78078195     0.80000
C133        C  0.19846456  0.20249218  0.88614784     0.81200
C134        C  0.10336883  0.08753418  0.97216399     0.80200
C135        C  0.26735507  0.38794464  0.99094814     0.83300
N136        N  0.25952200  0.39629357  0.04499538    -0.75000
C137        C  0.23522407  0.36738877  0.06830230     0.85700
N138        N  0.21888726  0.32962060  0.03729709    -0.75000
C139        C  0.22692825  0.31955063  0.98387345     0.85800
N140        N  0.25115237  0.34909172  0.96030756    -0.76700
C141        C  0.52272141  0.59732050  0.16029754     0.83300
N142        N  0.50577049  0.58220772  0.11437755    -0.75000
C143        C  0.47756188  0.60693319  0.10209973     0.85700
N144        N  0.46619311  0.64711811  0.13562874    -0.75000
C145        C  0.48283033  0.66271569  0.18165933     0.85800
N146        N  0.51128650  0.63776397  0.19433479    -0.76700
Zn147      Zn  0.60355908  0.37899107  0.10533324     1.49700
Zn148      Zn  0.66460916  0.44866290  0.14581786     1.49400
Zn149      Zn  0.66369322  0.31557797  0.15870131     1.49100
Zn150      Zn  0.66891499  0.36950150  0.03746842     1.49500
O151        O  0.65033954  0.37836730  0.11176936    -1.81100
O152        O  0.58520076  0.44941021  0.13582696    -0.71700
O153        O  0.69007831  0.43477038  0.21721927    -0.71500
O154        O  0.62516964  0.27228253  0.18494570    -0.71000
O155        O  0.62702360  0.50029000  0.16291319    -0.71700
O156        O  0.58345929  0.31446084  0.14530503    -0.71300
O157        O  0.68893805  0.34268141  0.22498270    -0.71900
O158        O  0.69297114  0.29665104  0.03282714    -0.71300
O159        O  0.69388681  0.48818032  0.09269191    -0.72000
O160        O  0.69106289  0.26037721  0.11770739    -0.71400
O161        O  0.69898422  0.43339214  0.01893587    -0.71900
O162        O  0.63421816  0.36762819  0.97805998    -0.71800
O163        O  0.58914722  0.37411750  0.02582955    -0.71600
C164        C  0.59695364  0.49371677  0.15628094     0.80200
C165        C  0.69760721  0.39025399  0.24299206     0.80700
C166        C  0.59527263  0.27594957  0.17524850     0.79700
C167        C  0.69977068  0.25793761  0.06734048     0.80000
C168        C  0.70574165  0.47785030  0.04530749     0.81200
C169        C  0.60385212  0.36968600  0.98020344     0.80200
C170        C  0.76279363  0.06353626  0.97221770     0.83300
N171        N  0.75119311  0.10951334  0.99833832    -0.75000
C172        C  0.73101189  0.14441111  0.97014052     0.85700
N173        N  0.72238990  0.13264030  0.91709018    -0.75000
C174        C  0.73364809  0.08707133  0.89117118     0.85800
N175        N  0.75414094  0.05302168  0.91859360    -0.76700
C176        C  0.50662240  0.09267466  0.28229611     0.83300
N177        N  0.52337814  0.07963195  0.32920986    -0.75000
C178        C  0.55151743  0.10548562  0.34060005     0.85700
N179        N  0.56282896  0.14453707  0.30535881    -0.75000
C180        C  0.54628855  0.15783004  0.25855344     0.85800
N181        N  0.51803987  0.13195831  0.24673238    -0.76700
Zn182      Zn  0.32963887  0.87080726  0.32777323     1.49700
Zn183      Zn  0.38585800  0.94855209  0.37484073     1.49400
Zn184      Zn  0.39765817  0.81886612  0.36558364     1.49100
Zn185      Zn  0.39424564  0.88807202  0.25535173     1.49500
O186        O  0.37644251  0.88194385  0.33028458    -1.81100
O187        O  0.30695626  0.93582783  0.36475784    -0.71700
O188        O  0.40982334  0.92918602  0.44523935    -0.71500
O189        O  0.36516251  0.76915963  0.39767647    -0.71000
O190        O  0.34587492  0.98954371  0.39850855    -0.71700
O191        O  0.31715598  0.79949045  0.37091571    -0.71300
O192        O  0.42384929  0.84145350  0.43091017    -0.71900
O193        O  0.42335462  0.82258992  0.23672135    -0.71300
O194        O  0.41536639  0.99881974  0.33211532    -0.72000
O195        O  0.42573496  0.77418557  0.31527874    -0.71400
O196        O  0.42195872  0.95755536  0.25013256    -0.71900
O197        O  0.35797565  0.88876628  0.19843495    -0.71800
O198        O  0.31403434  0.87009380  0.24700576    -0.71600
C199        C  0.31626169  0.97875437  0.39144493     0.80200
C200        C  0.42454464  0.88534347  0.45982095     0.80700
C201        C  0.33492159  0.76543199  0.39795773     0.79700
C202        C  0.43365925  0.78139233  0.26501517     0.80000
C203        C  0.42829580  0.99633032  0.28455491     0.81200
C204        C  0.32789521  0.87955514  0.20087089     0.80200
C205        C  0.25452339  0.57588690  0.49253848     0.83300
N206        N  0.26208134  0.61762424  0.45668410    -0.75000
C207        C  0.28197541  0.65921120  0.47279233     0.85700
N208        N  0.29433406  0.65909628  0.52524786    -0.75000
C209        C  0.28706828  0.61791443  0.56171516     0.85800
N210        N  0.26693592  0.57613714  0.54528947    -0.76700
C211        C  0.50431243  0.36497225  0.78452103     0.83300
N212        N  0.52223223  0.37636074  0.83057461    -0.75000
C213        C  0.55016953  0.34922079  0.83972210     0.85700
N214        N  0.56008878  0.31073319  0.80298071    -0.75000
C215        C  0.54228421  0.29935685  0.75703633     0.85800
N216        N  0.51434086  0.32645988  0.74756873    -0.76700
Zn217      Zn  0.36088222  0.57143061  0.90867321     1.49700
Zn218      Zn  0.42216336  0.58199125  0.83651632     1.49400
Zn219      Zn  0.36151675  0.50960427  0.79255538     1.49100
Zn220      Zn  0.35881427  0.64398666  0.79515218     1.49500
O221        O  0.37556298  0.57687355  0.83234380    -1.81100
O222        O  0.39657289  0.56653188  0.96500879    -0.71700
O223        O  0.44092241  0.51272351  0.80698326    -0.71500
O224        O  0.33126630  0.46266156  0.83949701    -0.71000
O225        O  0.43889715  0.58887467  0.91474857    -0.71700
O226        O  0.33142131  0.50665833  0.92039845    -0.71300
O227        O  0.40018261  0.46128933  0.77532923    -0.71900
O228        O  0.33103050  0.62266736  0.72733680    -0.71300
O229        O  0.43955499  0.64689662  0.79402921    -0.72000
O230        O  0.33701057  0.53078075  0.72203705    -0.71400
O231        O  0.39558813  0.69140236  0.76654447    -0.71900
O232        O  0.33530133  0.69258056  0.85118348    -0.71800
O233        O  0.33868500  0.64125784  0.92824353    -0.71600
C234        C  0.42600799  0.57874186  0.96119133     0.80200
C235        C  0.42994654  0.46863863  0.78500984     0.80700
C236        C  0.32196852  0.46686922  0.88952837     0.79700
C237        C  0.32593109  0.57635304  0.70266364     0.80000
C238        C  0.42592274  0.68721755  0.76938353     0.81200
C239        C  0.33067507  0.68567118  0.90314512     0.80200
C240        C  0.26553070  0.89839057  0.98187884     0.83300
N241        N  0.27550990  0.86019168  0.94438241    -0.75000
C242        C  0.29879504  0.82357613  0.95811617     0.85700
N243        N  0.31309066  0.82664876  0.00890089    -0.75000
C244        C  0.30359988  0.86463735  0.04671505     0.85800
N245        N  0.27933811  0.90019936  0.03349826    -0.76700
C246        C  0.51799045  0.86459947  0.66120912     0.83300
N247        N  0.50162400  0.88112101  0.61522503    -0.75000
C248        C  0.47234572  0.85991800  0.60392456     0.85700
N249        N  0.45933319  0.82171784  0.63835467    -0.75000
C250        C  0.47545714  0.80495423  0.68453534     0.85800
N251        N  0.50497584  0.82636791  0.69629340    -0.76700
Zn252      Zn  0.63701620  0.01707488  0.57088419     1.49700
Zn253      Zn  0.62245375  0.07420340  0.68667613     1.49400
Zn254      Zn  0.69273690  0.08615255  0.63475910     1.49100
Zn255      Zn  0.63233118  0.14849267  0.57954708     1.49500
O256        O  0.64643344  0.08133188  0.61801423    -1.81100
O257        O  0.60916914  0.96111428  0.61092618    -0.71700
O258        O  0.65193214  0.07809000  0.75219023    -0.71500
O259        O  0.71555273  0.02132734  0.59918204    -0.71000
O260        O  0.59722634  0.00305948  0.69025454    -0.71700
O261        O  0.67780376  0.98051805  0.54724587    -0.71300
O262        O  0.70115398  0.08464226  0.71841804    -0.71900
O263        O  0.66973847  0.19666022  0.56189441    -0.71300
O264        O  0.59201423  0.13743238  0.69637515    -0.72000
O265        O  0.71217302  0.15763798  0.60207594    -0.71400
O266        O  0.60227584  0.19356892  0.62519047    -0.71900
O267        O  0.60907366  0.13088299  0.50836547    -0.71800
O268        O  0.61235939  0.03894397  0.50176387    -0.71600
C269        C  0.59447947  0.96244182  0.65694572     0.80200
C270        C  0.68198481  0.08238077  0.75925094     0.80700
C271        C  0.70677796  0.98523567  0.56343975     0.79700
C272        C  0.69955940  0.19646656  0.57307889     0.80000
C273        C  0.58773227  0.18257690  0.66991629     0.81200
C274        C  0.60294794  0.08568978  0.48323823     0.80200
C275        C  0.76380492  0.38452164  0.45928985     0.83300
N276        N  0.75519155  0.38495265  0.40439723    -0.75000
C277        C  0.73181786  0.35001528  0.38566446     0.85700
N278        N  0.71747114  0.31492774  0.42157919    -0.75000
C279        C  0.72585142  0.31377821  0.47591982     0.85800
N280        N  0.74900607  0.34883954  0.49516301    -0.76700
C281        C  0.71985327  0.24132455  0.54946338    -0.13400
C282        C  0.70717225  0.27722199  0.51240811    -0.28500
H283        H  0.74541072  0.24163199  0.55805120     0.15700
H284        H  0.68194826  0.27386177  0.50156232     0.16200
C285        C  0.54868458  0.88945412  0.67159943    -0.10200
C286        C  0.57188745  0.91921249  0.66928355    -0.11800
C287        C  0.30808502  0.77990842  0.91861953    -0.13400
C288        C  0.31764462  0.73025245  0.93782995    -0.28500
H289        H  0.30653551  0.78803614  0.87429238     0.15700
H290        H  0.31731319  0.72242796  0.98233216     0.16200
C291        C  0.44545359  0.72908344  0.74373742    -0.10200
C292        C  0.46084766  0.76392748  0.71960577    -0.11800
C293        C  0.55353951  0.25853804  0.71911214    -0.10200
C294        C  0.56725374  0.22351037  0.69320988    -0.11800
C295        C  0.45242963  0.42539860  0.77425384    -0.10200
C296        C  0.47513297  0.39476445  0.77502060    -0.11800
C297        C  0.30198730  0.61973339  0.61806231    -0.13400
C298        C  0.30709402  0.57440306  0.64981663    -0.28500
H299        H  0.31168914  0.65944128  0.63169801     0.15700
H300        H  0.29930781  0.53400470  0.63469056     0.16200
C301        C  0.30847640  0.87972500  0.14887734    -0.13400
C302        C  0.32176732  0.86857171  0.09960813    -0.28500
H303        H  0.28281747  0.88594829  0.15140538     0.15700
H304        H  0.34693683  0.85758643  0.09835857     0.16200
C305        C  0.44179847  0.88395198  0.51120469    -0.10200
C306        C  0.45583263  0.87568711  0.55418909    -0.11800
C307        C  0.29165557  0.70257503  0.43261968    -0.13400
C308        C  0.32171188  0.72185819  0.43425649    -0.28500
H309        H  0.27503794  0.71625108  0.40046786     0.15700
H310        H  0.33836514  0.70391184  0.46428621     0.16200
C311        C  0.58454841  0.08783787  0.43272979    -0.10200
C312        C  0.56899638  0.09343016  0.39069628    -0.11800
C313        C  0.47674719  0.06467627  0.27165396    -0.10200
C314        C  0.45301569  0.03596294  0.27209874    -0.11800
C315        C  0.72347835  0.07509906  0.83357429    -0.13400
C316        C  0.69378381  0.08825591  0.81668175    -0.28500
H317        H  0.73992614  0.05492865  0.80555697     0.15700
H318        H  0.67691914  0.10408184  0.84675918     0.16200
C319        C  0.72094654  0.34840976  0.32730578    -0.13400
C320        C  0.71594887  0.39393376  0.29597701    -0.28500
H321        H  0.71212543  0.30844590  0.31265075     0.15700
H322        H  0.72289947  0.43460020  0.31160225     0.16200
C323        C  0.58536157  0.36584991  0.92982027    -0.10200
C324        C  0.56909197  0.36003670  0.88859517    -0.11800
C325        C  0.71701114  0.20788738  0.04820401    -0.13400
C326        C  0.71839782  0.19625710  0.99384528    -0.28500
H327        H  0.72614320  0.17837926  0.07869092     0.15700
H328        H  0.70745284  0.22489955  0.96428361     0.16200
C329        C  0.57433984  0.23518076  0.19901986    -0.10200
C330        C  0.55923578  0.19978403  0.22277682    -0.11800
C331        C  0.44490863  0.58347399  0.01092382    -0.10200
C332        C  0.46015003  0.59207643  0.05275041    -0.11800
C333        C  0.45430603  0.74115916  0.23938599    -0.10200
C334        C  0.46952054  0.70570314  0.21595500    -0.11800
C335        C  0.57503444  0.53775877  0.16960645    -0.10200
C336        C  0.55250920  0.56912546  0.17141520    -0.11800
C337        C  0.29943949  0.42503486  0.91210422    -0.13400
C338        C  0.29195306  0.42441624  0.96632558    -0.28500
H339        H  0.28847210  0.39531116  0.88378597     0.15700
H340        H  0.30335890  0.45413417  0.99418007     0.16200
C341        C  0.21853119  0.24766017  0.91020504    -0.13400
C342        C  0.20774359  0.27815755  0.95280483    -0.28500
H343        H  0.24281457  0.25341362  0.89560518     0.15700
H344        H  0.18416971  0.26922259  0.96928048     0.16200
C345        C  0.23981552  0.93749169  0.96597228    -0.13400
C346        C  0.23679071  0.95522687  0.91312712    -0.28500
H347        H  0.22382626  0.95277624  0.99768846     0.15700
H348        H  0.25474636  0.94382233  0.88294625     0.16200
C349        C  0.05136569  0.88676767  0.78985922    -0.10200
C350        C  0.07400544  0.91818137  0.79225732    -0.11800
C351        C  0.73098042  0.93478392  0.48626042    -0.13400
C352        C  0.73084013  0.94761017  0.54050737    -0.28500
H353        H  0.71422078  0.95468308  0.45776380     0.15700
H354        H  0.74958472  0.93213648  0.56801653     0.16200
C355        C  0.82455831  0.74502119  0.50305314    -0.13400
C356        C  0.79522592  0.76654365  0.50707689    -0.28500
H357        H  0.84111157  0.76327539  0.47356562     0.15700
H358        H  0.77916308  0.75148345  0.53899241     0.16200
C359        C  0.95278419  0.71871572  0.70883405    -0.10200
C360        C  0.96759446  0.75329260  0.73513470    -0.11800
C361        C  0.78719774  0.44980235  0.52760970    -0.13400
C362        C  0.78944299  0.42221998  0.47932235    -0.28500
H363        H  0.76541513  0.44642969  0.55162278     0.15700
H364        H  0.80973485  0.42981183  0.45248918     0.16200
C365        C  0.05202704  0.25693558  0.72900349    -0.10200
C366        C  0.06659609  0.22257824  0.75554751    -0.11800
C367        C  0.94910963  0.42230429  0.66664655    -0.10200
C368        C  0.97219979  0.39234235  0.66845819    -0.11800
C369        C  0.29543667  0.04111632  0.46435053    -0.13400
C370        C  0.29184364  0.01652011  0.41445705    -0.28500
H371        H  0.31655297  0.03239295  0.48951242     0.15700
H372        H  0.26922503  0.02038718  0.39218081     0.16200
C373        C  0.22642688  0.08183190  0.62442877    -0.13400
C374        C  0.19574184  0.08877667  0.63948977    -0.28500
H375        H  0.24422142  0.06844001  0.65478016     0.15700
H376        H  0.17796263  0.09817966  0.60755820     0.16200
C377        C  0.22610981  0.37755735  0.12662154    -0.13400
C378        C  0.19597349  0.36814025  0.14286560    -0.28500
H379        H  0.24376134  0.39397658  0.15569211     0.15700
H380        H  0.17817783  0.35563620  0.11205932     0.16200
C381        C  0.06651654  0.35931671  0.55943804    -0.10200
C382        C  0.08307813  0.36557582  0.51920744    -0.11800
C383        C  0.20900810  0.18121027  0.45002892    -0.13400
C384        C  0.22092013  0.21597029  0.41137711    -0.28500
H385        H  0.18458760  0.18683850  0.46387704     0.15700
H386        H  0.24590161  0.21336737  0.39978916     0.16200
C387        C  0.23237171  0.51329873  0.42096921    -0.13400
C388        C  0.23247818  0.53124461  0.47395274    -0.28500
H389        H  0.25058401  0.52819022  0.39263448     0.15700
H390        H  0.21621032  0.51296970  0.50384799     0.16200
C391        C  0.95774747  0.58273371  0.39105531    -0.10200
C392        C  0.94273887  0.57553977  0.43274569    -0.11800
C393        C  0.05255221  0.56781856  0.28185957    -0.10200
C394        C  0.07564752  0.53827653  0.28550178    -0.11800
C395        C  0.74234413  0.51541266  0.97242248    -0.13400
C396        C  0.72815252  0.51919519  0.02232543    -0.28500
H397        H  0.73696408  0.48077729  0.94502887     0.15700
H398        H  0.73348960  0.55446398  0.04895081     0.16200
C399        C  0.82123514  0.58947381  0.83808787    -0.13400
C400        C  0.80756118  0.58177831  0.78791553    -0.28500
H401        H  0.84670588  0.59839765  0.84068754     0.15700
H402        H  0.78171980  0.57808194  0.78427034     0.16200
C403        C  0.81795004  0.84457803  0.30570229    -0.13400
C404        C  0.80425314  0.88363307  0.33727840    -0.28500
H405        H  0.81759781  0.80158051  0.31973438     0.15700
H406        H  0.80276892  0.92608810  0.32194234     0.16200
C407        C  0.95671940  0.86552331  0.89911901    -0.10200
C408        C  0.94177729  0.87550187  0.94029479    -0.11800
C409        C  0.81791746  0.72858886  0.00144108    -0.13400
C410        C  0.80722060  0.67888952  0.01830346    -0.28500
H411        H  0.81798397  0.73821709  0.95725694     0.15700
H412        H  0.80525756  0.66957905  0.06233491     0.16200
C413        C  0.96624757  0.69190325  0.22472018    -0.10200
C414        C  0.95100902  0.72616450  0.19939491    -0.11800
C415        C  0.79544709  0.02625895  0.05254933    -0.13400
C416        C  0.78527603  0.02438714  0.99924307    -0.28500
H417        H  0.78678497  0.05821199  0.08029459     0.15700
H418        H  0.79401927  0.99155866  0.97255304     0.16200
C419        C  0.08404697  0.08913455  0.02131202    -0.10200
C420        C  0.06754171  0.09451818  0.06185118    -0.11800
C421        C  0.05510871  0.19870928  0.23024372    -0.10200
C422        C  0.06924555  0.23348745  0.25678191    -0.11800
C423        C  0.95146323  0.03205278  0.17867361    -0.10200
C424        C  0.97430683  0.06283866  0.17658856    -0.11800
loop_ 
_geom_bond_atom_site_label_1 
_geom_bond_atom_site_label_2 
_geom_bond_distance 
_geom_bond_site_symmetry_2 
_ccdc_geom_bond_type 
C1            N2   1.362       .  A
C1            N6   1.359       .  A
C1          C424   1.440   1_455  S
N2            C3   1.359       .  A
C3            N4   1.353       .  A
C3          C420   1.441       .  S
N4            C5   1.355       .  A
C5            N6   1.358       .  A
C5          C421   1.433       .  S
Zn7          O11   1.978       .  S
Zn7          O12   2.070       .  S
Zn7          O16   2.071       .  S
Zn7          O23   2.065       .  S
Zn8          O11   1.944       .  S
Zn8          O13   1.998       .  S
Zn8          O15   1.975       .  S
Zn8          O19   2.000       .  S
Zn9          O11   1.956       .  S
Zn9          O14   2.022       .  S
Zn9          O17   2.022       .  S
Zn9          O20   2.043       .  S
Zn10         O11   1.941       .  S
Zn10         O18   1.987       .  S
Zn10         O21   2.008   1_554  S
Zn10         O22   1.991       .  S
O12          C24   1.279       .  A
O13          C25   1.268       .  A
O14          C26   1.276       .  A
O15          C24   1.268       .  A
O16          C26   1.283       .  A
O17          C25   1.272       .  A
O18          C27   1.269       .  A
O19          C28   1.268   1_554  A
O20          C27   1.277       .  A
O21          C28   1.269       .  A
O22          C29   1.273       .  A
O23          C29   1.278       .  A
C24         C423   1.437   1_565  S
C25         C414   1.432       .  S
C26         C403   1.486       .  S
C27         C409   1.473       .  S
C28         C408   1.430       .  S
C29         C415   1.488   1_565  S
C30          N31   1.366       .  A
C30          N35   1.359       .  A
C30         C395   1.484       .  S
N31          C32   1.366       .  A
C32          N33   1.358       .  A
C32         C399   1.478       .  S
N33          C34   1.357       .  A
C34          N35   1.350       .  A
C34         C410   1.474   1_556  S
C36          N37   1.361       .  A
C36          N41   1.355       .  A
C36         C393   1.431       .  S
N37          C38   1.361   1_455  A
C38          N39   1.355       .  A
C38         C413   1.432       .  S
N39          C40   1.352       .  A
C40          N41   1.351   1_655  A
C40         C391   1.428       .  S
Zn42         O46   1.952       .  S
Zn42         O47   2.008       .  S
Zn42         O51   1.995       .  S
Zn42         O58   2.012       .  S
Zn43         O46   1.962       .  S
Zn43         O48   2.026       .  S
Zn43         O50   2.023       .  S
Zn43         O54   2.025       .  S
Zn44         O46   1.976       .  S
Zn44         O49   2.059       .  S
Zn44         O52   2.045       .  S
Zn44         O55   2.057       .  S
Zn45         O46   1.951       .  S
Zn45         O53   1.989       .  S
Zn45         O56   2.004       .  S
Zn45         O57   2.008       .  S
O47          C59   1.270       .  A
O48          C60   1.275       .  A
O49          C61   1.278       .  A
O50          C59   1.272       .  A
O51          C61   1.273       .  A
O52          C60   1.277       .  A
O53          C62   1.270       .  A
O54          C63   1.273       .  A
O55          C62   1.278       .  A
O56          C63   1.270       .  A
O57          C64   1.270       .  A
O58          C64   1.270       .  A
C59         C382   1.435       .  S
C60         C387   1.477       .  S
C61         C384   1.485       .  S
C62         C378   1.474       .  S
C63         C394   1.432       .  S
C64         C422   1.432       .  S
C65          N66   1.365       .  A
C65          N70   1.365       .  A
C65         C369   1.482       .  S
N66          C67   1.361       .  A
C67          N68   1.356       .  A
C67         C373   1.487       .  S
N68          C69   1.355       .  A
C69          N70   1.361       .  A
C69         C383   1.474       .  S
C71          N72   1.359       .  A
C71          N76   1.361       .  A
C71         C368   1.439   1_455  S
N72          C73   1.355       .  A
C73          N74   1.353       .  A
C73         C381   1.435       .  S
N74          C75   1.355       .  A
C75          N76   1.361       .  A
C75         C365   1.435       .  S
Zn77         O81   1.965       .  S
Zn77         O82   2.031       .  S
Zn77         O86   2.015       .  S
Zn77         O93   2.016       .  S
Zn78         O81   1.971       .  S
Zn78         O83   2.047       .  S
Zn78         O85   2.039       .  S
Zn78         O89   2.073       .  S
Zn79         O81   1.960       .  S
Zn79         O84   2.034       .  S
Zn79         O87   2.029       .  S
Zn79         O90   2.044       .  S
Zn80         O81   1.949       .  S
Zn80         O88   2.022       .  S
Zn80         O91   1.981       .  S
Zn80         O92   1.990       .  S
O82          C94   1.275       .  A
O83          C95   1.278       .  A
O84          C96   1.275       .  A
O85          C94   1.275       .  A
O86          C96   1.273       .  A
O87          C95   1.278       .  A
O88          C97   1.271       .  A
O89          C98   1.281       .  A
O90          C97   1.274       .  A
O91          C98   1.269       .  A
O92          C99   1.268       .  A
O93          C99   1.271       .  A
C94         C361   1.480       .  S
C95         C400   1.484       .  S
C96         C367   1.438       .  S
C97         C359   1.445       .  S
C98         C355   1.477       .  S
C99         C392   1.427       .  S
C100        N101   1.357       .  A
C100        N105   1.359       .  A
C100        C351   1.471       .  S
N101        C102   1.355       .  A
C102        N103   1.365       .  A
C102        C356   1.481       .  S
N103        C104   1.365       .  A
C104        N105   1.359       .  A
C104        C404   1.487       .  S
C106        N107   1.355       .  A
C106        N111   1.365       .  A
C106        C349   1.442       .  S
N107        C108   1.352   1_455  A
C108        N109   1.354       .  A
C108        C407   1.431       .  S
N109        C110   1.357       .  A
C110        N111   1.366   1_655  A
C110        C360   1.445       .  S
Zn112       O116   1.973       .  S
Zn112       O117   2.036   1_545  S
Zn112       O121   2.038   1_545  S
Zn112       O128   2.035       .  S
Zn113       O116   1.978       .  S
Zn113       O118   2.053       .  S
Zn113       O120   2.021       .  S
Zn113       O124   2.054       .  S
Zn114       O116   1.958       .  S
Zn114       O119   2.027       .  S
Zn114       O122   2.021       .  S
Zn114       O125   2.020       .  S
Zn115       O116   1.960       .  S
Zn115       O123   2.016       .  S
Zn115       O126   2.011       .  S
Zn115       O127   2.017       .  S
O117        C129   1.276       .  A
O118        C130   1.277       .  A
O119        C131   1.273   1_545  A
O120        C129   1.274   1_545  A
O121        C131   1.275       .  A
O122        C130   1.274       .  A
O123        C132   1.271       .  A
O124        C133   1.277       .  A
O125        C132   1.272       .  A
O126        C133   1.275       .  A
O127        C134   1.271       .  A
O128        C134   1.273       .  A
C129        C346   1.473       .  S
C130        C374   1.481       .  S
C131        C350   1.443       .  S
C132        C366   1.436       .  S
C133        C341   1.486       .  S
C134        C419   1.441   1_556  S
C135        N136   1.361   1_556  A
C135        N140   1.366       .  A
C135        C338   1.477       .  S
N136        C137   1.355       .  A
C137        N138   1.356       .  A
C137        C377   1.480       .  S
N138        C139   1.356   1_554  A
C139        N140   1.363       .  A
C139        C342   1.477       .  S
C141        N142   1.357       .  A
C141        N146   1.366       .  A
C141        C336   1.443       .  S
N142        C143   1.353       .  A
C143        N144   1.353       .  A
C143        C332   1.432       .  S
N144        C145   1.355       .  A
C145        N146   1.366       .  A
C145        C334   1.443       .  S
Zn147       O151   1.961       .  S
Zn147       O152   2.008       .  S
Zn147       O156   2.010       .  S
Zn147       O163   2.004       .  S
Zn148       O151   1.970       .  S
Zn148       O153   2.039       .  S
Zn148       O155   2.053       .  S
Zn148       O159   2.014       .  S
Zn149       O151   1.962       .  S
Zn149       O154   2.021       .  S
Zn149       O157   2.013       .  S
Zn149       O160   2.023       .  S
Zn150       O151   1.970       .  S
Zn150       O158   2.028       .  S
Zn150       O161   2.034       .  S
Zn150       O162   2.027   1_554  S
O152        C164   1.271       .  A
O153        C165   1.275       .  A
O154        C166   1.273       .  A
O155        C164   1.275       .  A
O156        C166   1.270       .  A
O157        C165   1.275       .  A
O158        C167   1.277       .  A
O159        C168   1.274       .  A
O160        C167   1.271       .  A
O161        C168   1.275       .  A
O162        C169   1.273       .  A
O163        C169   1.270   1_554  A
C164        C335   1.443       .  S
C165        C320   1.484       .  S
C166        C329   1.434       .  S
C167        C325   1.483       .  S
C168        C396   1.475       .  S
C169        C323   1.434       .  S
C170        N171   1.368       .  A
C170        N175   1.361       .  A
C170        C416   1.478       .  S
N171        C172   1.366       .  A
C172        N173   1.354       .  A
C172        C326   1.475       .  S
N173        C174   1.352       .  A
C174        N175   1.353       .  A
C174        C315   1.475       .  S
C176        N177   1.359       .  A
C176        N181   1.362       .  A
C176        C313   1.438       .  S
N177        C178   1.355       .  A
C178        N179   1.351       .  A
C178        C312   1.433       .  S
N179        C180   1.354       .  A
C180        N181   1.361       .  A
C180        C330   1.433       .  S
Zn182       O186   1.975       .  S
Zn182       O187   2.044       .  S
Zn182       O191   2.071       .  S
Zn182       O198   2.044       .  S
Zn183       O186   1.968       .  S
Zn183       O188   2.013       .  S
Zn183       O190   2.033       .  S
Zn183       O194   2.013       .  S
Zn184       O186   1.949       .  S
Zn184       O189   1.969       .  S
Zn184       O192   1.983       .  S
Zn184       O195   2.013       .  S
Zn185       O186   1.964       .  S
Zn185       O193   2.049       .  S
Zn185       O196   2.035       .  S
Zn185       O197   2.033       .  S
O187        C199   1.276       .  A
O188        C200   1.270       .  A
O189        C201   1.268       .  A
O190        C199   1.274       .  A
O191        C201   1.280       .  A
O192        C200   1.267       .  A
O193        C202   1.274       .  A
O194        C203   1.273       .  A
O195        C202   1.269       .  A
O196        C203   1.275       .  A
O197        C204   1.279       .  A
O198        C204   1.278       .  A
C199        C370   1.483   1_565  S
C200        C305   1.426       .  S
C201        C308   1.472       .  S
C202        C333   1.444       .  S
C203        C314   1.437   1_565  S
C204        C301   1.485       .  S
C205        N206   1.360       .  A
C205        N210   1.367       .  A
C205        C388   1.480       .  S
N206        C207   1.354       .  A
C207        N208   1.359       .  A
C207        C307   1.478       .  S
N208        C209   1.357       .  A
C209        N210   1.366       .  A
C209        C297   1.488       .  S
C211        N212   1.360       .  A
C211        N216   1.358       .  A
C211        C296   1.433       .  S
N212        C213   1.356       .  A
C213        N214   1.352       .  A
C213        C324   1.435       .  S
N214        C215   1.355       .  A
C215        N216   1.357       .  A
C215        C293   1.428       .  S
Zn217       O221   1.947       .  S
Zn217       O222   2.009       .  S
Zn217       O226   2.004       .  S
Zn217       O233   1.983       .  S
Zn218       O221   1.954       .  S
Zn218       O223   1.982       .  S
Zn218       O225   2.009       .  S
Zn218       O229   2.002       .  S
Zn219       O221   1.968       .  S
Zn219       O224   2.041       .  S
Zn219       O227   2.042       .  S
Zn219       O230   2.037       .  S
Zn220       O221   1.971       .  S
Zn220       O228   2.059       .  S
Zn220       O231   2.036       .  S
Zn220       O232   2.050       .  S
O222        C234   1.269       .  A
O223        C235   1.269       .  A
O224        C236   1.274       .  A
O225        C234   1.269       .  A
O226        C236   1.273       .  A
O227        C235   1.276       .  A
O228        C237   1.281       .  A
O229        C238   1.269       .  A
O230        C237   1.277       .  A
O231        C238   1.274       .  A
O232        C239   1.278       .  A
O233        C239   1.270       .  A
C234        C331   1.432   1_556  S
C235        C295   1.431       .  S
C236        C337   1.482       .  S
C237        C298   1.490       .  S
C238        C291   1.436       .  S
C239        C288   1.472       .  S
C240        N241   1.360       .  A
C240        N245   1.365   1_556  A
C240        C345   1.478       .  S
N241        C242   1.353       .  A
C242        N243   1.357   1_556  A
C242        C287   1.476       .  S
N243        C244   1.356       .  A
C244        N245   1.364       .  A
C244        C302   1.479       .  S
C246        N247   1.354       .  A
C246        N251   1.362       .  A
C246        C285   1.434       .  S
N247        C248   1.350       .  A
C248        N249   1.352       .  A
C248        C306   1.426       .  S
N249        C250   1.355       .  A
C250        N251   1.363       .  A
C250        C292   1.436       .  S
Zn252       O256   1.957       .  S
Zn252       O257   2.025   1_545  S
Zn252       O261   2.011   1_545  S
Zn252       O268   2.017       .  S
Zn253       O256   1.949       .  S
Zn253       O258   1.993       .  S
Zn253       O260   2.010       .  S
Zn253       O264   2.003       .  S
Zn254       O256   1.977       .  S
Zn254       O259   2.029       .  S
Zn254       O262   2.041       .  S
Zn254       O265   2.057       .  S
Zn255       O256   1.950       .  S
Zn255       O263   1.992       .  S
Zn255       O266   2.003       .  S
Zn255       O267   2.007       .  S
O257        C269   1.273       .  A
O258        C270   1.270       .  A
O259        C271   1.275   1_545  A
O260        C269   1.270   1_545  A
O261        C271   1.274       .  A
O262        C270   1.276       .  A
O263        C272   1.273       .  A
O264        C273   1.269       .  A
O265        C272   1.276       .  A
O266        C273   1.269       .  A
O267        C274   1.270       .  A
O268        C274   1.271       .  A
C269        C286   1.435       .  S
C270        C316   1.470       .  S
C271        C352   1.470       .  S
C272        C281   1.486       .  S
C273        C294   1.428       .  S
C274        C311   1.433       .  S
C275        N276   1.366       .  A
C275        N280   1.367       .  A
C275        C362   1.480       .  S
N276        C277   1.361       .  A
C277        N278   1.350       .  A
C277        C319   1.472       .  S
N278        C279   1.351       .  A
C279        N280   1.361       .  A
C279        C282   1.470       .  S
C281        C282   1.345       .  D
C281        H283   1.087       .  S
C282        H284   1.087       .  S
C285        C286   1.206       .  T
C287        C288   1.340       .  D
C287        H289   1.085       .  S
C288        H290   1.087       .  S
C291        C292   1.206       .  T
C293        C294   1.201       .  T
C295        C296   1.204       .  T
C297        C298   1.346       .  D
C297        H299   1.087       .  S
C298        H300   1.087       .  S
C301        C302   1.344       .  D
C301        H303   1.087       .  S
C302        H304   1.087       .  S
C305        C306   1.200       .  T
C307        C308   1.339       .  D
C307        H309   1.086       .  S
C308        H310   1.088       .  S
C311        C312   1.204       .  T
C313        C314   1.207       .  T
C315        C316   1.341       .  D
C315        H317   1.086       .  S
C316        H318   1.087       .  S
C319        C320   1.343       .  D
C319        H321   1.087       .  S
C320        H322   1.087       .  S
C323        C324   1.205       .  T
C325        C326   1.341   1_554  D
C325        H327   1.087       .  S
C326        H328   1.087       .  S
C329        C330   1.205       .  T
C331        C332   1.204       .  T
C333        C334   1.211       .  T
C335        C336   1.211       .  T
C337        C338   1.346       .  D
C337        H339   1.087       .  S
C338        H340   1.087       .  S
C341        C342   1.346       .  D
C341        H343   1.087       .  S
C342        H344   1.087       .  S
C345        C346   1.345       .  D
C345        H347   1.086       .  S
C346        H348   1.087       .  S
C349        C350   1.210       .  T
C351        C352   1.343       .  D
C351        H353   1.087       .  S
C352        H354   1.087       .  S
C355        C356   1.338       .  D
C355        H357   1.087       .  S
C356        H358   1.086       .  S
C359        C360   1.212       .  T
C361        C362   1.345       .  D
C361        H363   1.087       .  S
C362        H364   1.087       .  S
C365        C366   1.206       .  T
C367        C368   1.208       .  T
C369        C370   1.348       .  D
C369        H371   1.086       .  S
C370        H372   1.086       .  S
C373        C374   1.349       .  D
C373        H375   1.086       .  S
C374        H376   1.087       .  S
C377        C378   1.342       .  D
C377        H379   1.086       .  S
C378        H380   1.087       .  S
C381        C382   1.205       .  T
C383        C384   1.347       .  D
C383        H385   1.087       .  S
C384        H386   1.086       .  S
C387        C388   1.348       .  D
C387        H389   1.087       .  S
C388        H390   1.086       .  S
C391        C392   1.201       .  T
C393        C394   1.204       .  T
C395        C396   1.349   1_556  D
C395        H397   1.086       .  S
C396        H398   1.086       .  S
C399        C400   1.344       .  D
C399        H401   1.087       .  S
C400        H402   1.087       .  S
C403        C404   1.345       .  D
C403        H405   1.087       .  S
C404        H406   1.087       .  S
C407        C408   1.203       .  T
C409        C410   1.338       .  D
C409        H411   1.088   1_554  S
C410        H412   1.086       .  S
C413        C414   1.204       .  T
C415        C416   1.348   1_554  D
C415        H417   1.086       .  S
C416        H418   1.087   1_545  S
C419        C420   1.209       .  T
C421        C422   1.204       .  T
C423        C424   1.208       .  T
