geometry optimzed in LAMMPS
_audit_creation_date              2020-11-30 
_audit_creation_method            'lammps2cif' 
_symmetry_space_group_name_H-M    'P1' 
_symmetry_Int_Tables_number       1 
_symmetry_cell_setting            triclinic 
loop_ 
_symmetry_equiv_pos_as_xyz 
  x,y,z 
_cell_length_a                    47.26226826 
_cell_length_b                    26.412013365388425 
_cell_length_c                    23.054134394926805 
_cell_angle_alpha                 89.89216730888838 
_cell_angle_beta                  90.17707101866543 
_cell_angle_gamma                 89.99143093151596 
loop_ 
_atom_site_label 
_atom_site_type_symbol 
_atom_site_fract_x 
_atom_site_fract_y 
_atom_site_fract_z 
_atom_site_charge 
N1          N  0.04566593  0.00360137  0.01617339    -0.36300
N2          N  0.00258847  0.07930564  0.49223919    -0.56900
N3          N  0.95888793  0.00590761  0.52136908    -0.36300
N4          N  0.00203495  0.92858149  0.03886055    -0.56900
C5          C  0.06139288  0.03987058  0.49021883     0.27300
C6          C  0.06115594  0.96052001  0.01612860     0.27300
C7          C  0.94291783  0.04351772  0.49842018     0.27300
C8          C  0.94262751  0.96375906  0.02295783     0.27300
C9          C  0.02571534  0.10927020  0.48966100     0.35900
C10         C  0.97993632  0.11050821  0.49233022     0.35900
C11         C  0.02493198  0.90162077  0.05576049     0.35900
C12         C  0.97913809  0.90244401  0.05709489     0.35900
C13         C  0.08717442  0.01953225  0.47350590    -0.21600
C14         C  0.08705910  0.96951885  0.98997551    -0.21600
C15         C  0.91601420  0.02531576  0.48636420    -0.21600
C16         C  0.91585838  0.97497556  0.00176082    -0.21600
C17         C  0.01768111  0.15978671  0.48824773    -0.22700
C18         C  0.98865792  0.16053327  0.48949801    -0.22700
C19         C  0.01653190  0.85806370  0.08462466    -0.22700
C20         C  0.98749068  0.85846482  0.08518987    -0.22700
C21         C  0.05380042  0.09147353  0.48408819    -0.18000
C22         C  0.05320432  0.91408404  0.04200177    -0.18000
C23         C  0.95079869  0.91601500  0.04533306    -0.18000
C24         C  0.95149277  0.09435012  0.49030540    -0.18000
H25         H  0.10442462  0.03881427  0.45200581     0.14900
H26         H  0.10416286  0.94284900  0.98367445     0.14900
H27         H  0.89829478  0.04611148  0.46840128     0.14900
H28         H  0.89797625  0.94959651  0.99791983     0.14900
H29         H  0.03124012  0.19271780  0.48566929     0.13200
H30         H  0.97548181  0.19403444  0.48786080     0.13200
H31         H  0.02989446  0.82871363  0.10274236     0.13200
H32         H  0.97405456  0.82954221  0.10380668     0.13200
H33         H  0.02697932  0.00934522  0.03884751     0.26400
H34         H  0.97871424  0.01003816  0.54029452     0.26400
O35         O  0.30130116  0.61156996  0.12089679    -0.57500
C36         C  0.25346556  0.51795996  0.02802234     0.75100
O37         O  0.22818224  0.52401127  0.19830575    -0.58700
C38         C  0.29697424  0.65502734  0.14229238     0.75100
C39         C  0.20649428  0.65520627  0.11102103     0.77500
Cd40       Cd  0.25145061  0.58341178  0.12880228     1.37500
O41         O  0.27576567  0.53724650  0.04888292    -0.57500
O42         O  0.22267112  0.64164159  0.07020734    -0.56300
C43         C  0.24952116  0.51969013  0.23112152     0.77400
O44         O  0.21065883  0.63451869  0.15993926    -0.58700
O45         O  0.23060524  0.52857463  0.05353615    -0.57200
O46         O  0.27181659  0.66493423  0.15682345    -0.57200
O47         O  0.27115283  0.54479857  0.21713268    -0.56300
O48         O  0.29301438  0.36198141  0.41081326    -0.57500
C49         C  0.25379190  0.48473695  0.47699694     0.75100
O50         O  0.22873132  0.45945830  0.29596383    -0.58700
C51         C  0.29859099  0.34510140  0.36081676     0.75100
C52         C  0.20651762  0.34797582  0.39702035     0.77500
Cd53       Cd  0.25295432  0.41695453  0.37865449     1.37500
O54         O  0.27658933  0.47019822  0.45356247    -0.57500
O55         O  0.22136399  0.36533925  0.43810628    -0.56300
C56         C  0.24978292  0.48642019  0.28208953     0.77400
O57         O  0.21291807  0.36283381  0.34649290    -0.58700
O58         O  0.23102560  0.46889924  0.45453092    -0.57200
O59         O  0.28355903  0.36209904  0.31981082    -0.57200
O60         O  0.27158128  0.48254478  0.31368895    -0.56300
N61         N  0.45914560  0.99886007  0.24377276    -0.36300
N62         N  0.50218722  0.07414990  0.26960682    -0.56900
N63         N  0.54577792  0.00211036  0.23589383    -0.36300
N64         N  0.50271657  0.92494602  0.21757965    -0.56900
C65         C  0.44364914  0.03413140  0.27197915     0.27300
C66         C  0.44388688  0.95551094  0.24351656     0.27300
C67         C  0.56188703  0.03951693  0.25856394     0.27300
C68         C  0.56218438  0.96024687  0.23244406     0.27300
C69         C  0.47891977  0.10385856  0.27156515     0.35900
C70         C  0.52462416  0.10574338  0.26651951     0.35900
C71         C  0.47977878  0.89869095  0.19961951     0.35900
C72         C  0.52551331  0.90016875  0.19670295     0.35900
C73         C  0.41829663  0.01289108  0.28991387    -0.21600
C74         C  0.41842915  0.96330923  0.27187906    -0.21600
C75         C  0.58898607  0.02141624  0.26900494    -0.21600
C76         C  0.58916986  0.97133937  0.25253259    -0.21600
C77         C  0.48664484  0.15448573  0.26980914    -0.22700
C78         C  0.51562081  0.15566620  0.26695560    -0.22700
C79         C  0.48807294  0.85703590  0.16733221    -0.22700
C80         C  0.51707180  0.85773931  0.16592585    -0.22700
C81         C  0.45096824  0.08579925  0.27842453    -0.18000
C82         C  0.45160886  0.91003928  0.21532883    -0.18000
C83         C  0.55389016  0.91332408  0.20832978    -0.18000
C84         C  0.55320699  0.09023162  0.26683669    -0.18000
H85         H  0.40132819  0.03130406  0.31319495     0.14900
H86         H  0.40160477  0.93615671  0.27864785     0.14900
H87         H  0.60684707  0.04223566  0.28624034     0.14900
H88         H  0.60721687  0.94615268  0.25449982     0.14900
H89         H  0.47290220  0.18723897  0.27072725     0.13200
H90         H  0.52858322  0.18942279  0.26546623     0.13200
H91         H  0.47469722  0.82875781  0.14729085     0.13200
H92         H  0.53041790  0.83009788  0.14478058     0.13200
H93         H  0.47739049  0.00562915  0.21993079     0.26400
H94         H  0.52577338  0.00648925  0.21784818     0.26400
O95         O  0.77617142  0.52912357  0.19481208    -0.57500
C96         C  0.79710769  0.65567829  0.10484593     0.75100
O97         O  0.72929390  0.52305792  0.05225538    -0.58700
C98         C  0.75363395  0.51613394  0.22034144     0.75100
C99         C  0.70569963  0.65344536  0.13525987     0.77500
Cd100      Cd  0.75196498  0.58318969  0.12084010     1.37500
O101        O  0.79478476  0.63039984  0.15136521    -0.57500
O102        O  0.72507633  0.64782709  0.17264153    -0.56300
C103        C  0.75131519  0.51539703  0.02251164     0.77400
O104        O  0.70752294  0.62631272  0.09019890    -0.58700
O105        O  0.77875311  0.64706317  0.06603761    -0.57200
O106        O  0.73080789  0.53350271  0.19981931    -0.57200
O107        O  0.77348759  0.53818205  0.03854893    -0.56300
O108        O  0.70393926  0.38182775  0.38222700    -0.57500
C109        C  0.75125099  0.48207372  0.47161583     0.75100
O110        O  0.79759815  0.37389478  0.35258736    -0.58700
C111        C  0.70685457  0.34654818  0.34559694     0.75100
C112        C  0.75360465  0.48270184  0.27126456     0.77500
Cd113      Cd  0.75215520  0.41633745  0.37131104     1.37500
O114        O  0.72996483  0.45567689  0.45783999    -0.57500
O115        O  0.73087072  0.47168091  0.29705593    -0.56300
C116        C  0.79670401  0.34520645  0.39660168     0.77400
O117        O  0.77603959  0.46349809  0.29163494    -0.58700
O118        O  0.77264775  0.47850532  0.43917051    -0.57200
O119        O  0.73062522  0.34386914  0.32066384    -0.57200
O120        O  0.77532284  0.34984258  0.42907000    -0.56300
C121        C  0.61030800  0.83681095  0.13191298    -0.10600
C122        C  0.61632643  0.79924147  0.17347983     0.06600
C123        C  0.60158467  0.79963772  0.22639428    -0.09300
C124        C  0.58149714  0.83705066  0.23777126    -0.11000
C125        C  0.57590173  0.87481761  0.19660369    -0.00800
C126        C  0.59029573  0.87448187  0.14353340    -0.09900
C127        C  0.63875830  0.76103957  0.16307532     0.06600
H128        H  0.60552525  0.77081729  0.25890158     0.08500
H129        H  0.57024941  0.83658642  0.27863649     0.12000
H130        H  0.58593845  0.90326484  0.11119582     0.12300
H131        H  0.62151780  0.83768098  0.09103223     0.08600
C132        C  0.64135592  0.73666199  0.10914825    -0.10600
C133        C  0.66291825  0.70115618  0.09995956    -0.09900
C134        C  0.68238793  0.68988239  0.14436266    -0.00800
C135        C  0.67970314  0.71428059  0.19811846    -0.10900
C136        C  0.65811824  0.74929694  0.20740423    -0.09400
H137        H  0.62658744  0.74476276  0.07433870     0.08600
H138        H  0.66450028  0.68288149  0.05808155     0.12300
H139        H  0.69438165  0.70641788  0.23315836     0.12000
H140        H  0.65689929  0.76797329  0.24909914     0.08500
C141        C  0.66652916  0.23564203  0.28213531    -0.10600
C142        C  0.64012356  0.24001118  0.30963949     0.06600
C143        C  0.63581713  0.28013510  0.34864853    -0.09300
C144        C  0.65744631  0.31483381  0.36015716    -0.11000
C145        C  0.68383532  0.31026629  0.33281729    -0.00800
C146        C  0.68812874  0.27040746  0.29355304    -0.09900
C147        C  0.61735979  0.20240463  0.29833619     0.06600
H148        H  0.61561668  0.28500583  0.36994377     0.08500
H149        H  0.65349314  0.34526947  0.39048144     0.12000
H150        H  0.70828659  0.26580023  0.27198191     0.12300
H151        H  0.67070352  0.20475849  0.25255292     0.08600
C152        C  0.61304435  0.18288775  0.24222386    -0.10600
C153        C  0.59220553  0.14639898  0.23203448    -0.09900
C154        C  0.57522475  0.12905561  0.27762904    -0.00800
C155        C  0.57911800  0.14878154  0.33346264    -0.10900
C156        C  0.60005314  0.18504701  0.34380060    -0.09400
H157        H  0.62567214  0.19604089  0.20611199     0.08600
H158        H  0.58924024  0.13171715  0.18860131     0.12300
H159        H  0.56612362  0.13564480  0.36906425     0.12000
H160        H  0.60305361  0.19875183  0.38761545     0.08500
C161        C  0.34916729  0.25754905  0.28299910    -0.10600
C162        C  0.36331711  0.23343335  0.32923139     0.06600
C163        C  0.35611521  0.24715445  0.38635740    -0.09300
C164        C  0.33537868  0.28389793  0.39679522    -0.11000
C165        C  0.32113441  0.30731195  0.35041454    -0.00800
C166        C  0.32822363  0.29365043  0.29347268    -0.09900
C167        C  0.38545621  0.19441852  0.31756062     0.06600
H168        H  0.36611541  0.22895613  0.42317600     0.08500
H169        H  0.33021196  0.29344781  0.44118023     0.12000
H170        H  0.31771261  0.31120751  0.25678593     0.12300
H171        H  0.35449600  0.24918330  0.23842440     0.08600
C172        C  0.38345782  0.16289868  0.26847473    -0.10600
C173        C  0.40469400  0.12784755  0.25598068    -0.09900
C174        C  0.42817502  0.12262594  0.29281202    -0.00800
C175        C  0.42997422  0.15289433  0.34267464    -0.10900
C176        C  0.40900055  0.18874198  0.35464766    -0.09400
H177        H  0.36539367  0.16499644  0.23963077     0.08600
H178        H  0.40284197  0.10471675  0.21740044     0.12300
H179        H  0.44788124  0.14927196  0.37182711     0.12000
H180        H  0.41160160  0.21264182  0.39235207     0.08500
C181        C  0.40943351  0.78778468  0.21431470    -0.10600
C182        C  0.38623273  0.80095500  0.17916989     0.06600
C183        C  0.38466180  0.85009797  0.15594311    -0.09300
C184        C  0.40600611  0.88532397  0.16740180    -0.11000
C185        C  0.42909068  0.87221096  0.20283420    -0.00800
C186        C  0.43055864  0.82324769  0.22645547    -0.09900
C187        C  0.36342152  0.76381583  0.16794865     0.06600
H188        H  0.36705093  0.86104766  0.12848712     0.08500
H189        H  0.40454861  0.92289863  0.14871566     0.12000
H190        H  0.44806718  0.81259040  0.25433741     0.12300
H191        H  0.41091624  0.75033845  0.23330397     0.08600
C192        C  0.36991933  0.71389908  0.15175353    -0.10600
C193        C  0.34833022  0.67855834  0.14263505    -0.09900
C194        C  0.31989373  0.69240148  0.15024688    -0.00800
C195        C  0.31343315  0.74237990  0.16631086    -0.10900
C196        C  0.33497573  0.77781787  0.17470367    -0.09400
H197        H  0.39171067  0.70233895  0.14591077     0.08600
H198        H  0.35389753  0.64030254  0.13027994     0.12300
H199        H  0.29169265  0.75412567  0.17245717     0.12000
H200        H  0.32944563  0.81594205  0.18767810     0.08500
C201        C  0.83838024  0.24026069  0.46919589    -0.10600
C202        C  0.86282811  0.23789911  0.43461287     0.06600
C203        C  0.86503483  0.27083061  0.38677567    -0.09300
C204        C  0.84348846  0.30546767  0.37421300    -0.11000
C205        C  0.81933866  0.30819885  0.40938532    -0.00800
C206        C  0.81696097  0.27515435  0.45688608    -0.09900
C207        C  0.88599198  0.20164258  0.44882203     0.06600
H208        H  0.88368094  0.27064386  0.35964040     0.08500
H209        H  0.84588999  0.33050005  0.33729460     0.12000
H210        H  0.79846915  0.27610626  0.48449317     0.12300
H211        H  0.83562333  0.21480627  0.50559102     0.08600
C212        C  0.89268944  0.19025990  0.50699375    -0.10600
C213        C  0.91410837  0.15566516  0.52044788    -0.09900
C214        C  0.92943208  0.13227546  0.47609003    -0.00800
C215        C  0.92323139  0.14384019  0.41810157    -0.10900
C216        C  0.90161649  0.17804278  0.40451944    -0.09400
H217        H  0.88156297  0.20841824  0.54225230     0.08600
H218        H  0.91820340  0.14595449  0.06540342     0.12300
H219        H  0.93484767  0.12571364  0.38343888     0.12000
H220        H  0.89681650  0.18521480  0.35931049     0.08500
C221        C  0.84487700  0.75274822  0.03361685    -0.10600
C222        C  0.86297085  0.76624768  0.07953814     0.06600
C223        C  0.85932182  0.74283509  0.13381473    -0.09300
C224        C  0.83808708  0.70662089  0.14196954    -0.11000
C225        C  0.81989162  0.69338904  0.09614843    -0.00800
C226        C  0.82348916  0.71688016  0.04190161    -0.09900
C227        C  0.88555821  0.80462553  0.07087290     0.06600
H228        H  0.87313854  0.75211524  0.16981140     0.08500
H229        H  0.83582605  0.68916206  0.18423991     0.12000
H230        H  0.80976903  0.70751506  0.00577177     0.12300
H231        H  0.84693160  0.77056067  0.49144158     0.08600
C232        C  0.90245604  0.80374405  0.02076076    -0.10600
C233        C  0.92382947  0.83968646  0.01280939    -0.09900
C234        C  0.92848026  0.87735342  0.05451719    -0.00800
C235        C  0.91161564  0.87865643  0.10438207    -0.10900
C236        C  0.89040821  0.84242743  0.11266025    -0.09400
H237        H  0.89937616  0.77482675  0.98811162     0.08600
H238        H  0.93669285  0.83833815  0.97403956     0.12300
H239        H  0.91490952  0.90772033  0.13678619     0.12000
H240        H  0.87751870  0.84436678  0.15134234     0.08500
C241        C  0.09765874  0.79515859  0.03247350    -0.10600
C242        C  0.11865330  0.80434548  0.07450443     0.06600
C243        C  0.11775922  0.84968432  0.10631160    -0.09300
C244        C  0.09647540  0.88534807  0.09569747    -0.11000
C245        C  0.07564863  0.87602428  0.05354338    -0.00800
C246        C  0.07634857  0.83068678  0.02209281    -0.09900
C247        C  0.14155844  0.76688272  0.08428546     0.06600
H248        H  0.13380115  0.85792226  0.13857974     0.08500
H249        H  0.09621999  0.92027905  0.12023531     0.12000
H250        H  0.06042045  0.82297171  0.98940802     0.12300
H251        H  0.09763558  0.76027969  0.00786077     0.08600
C252        C  0.15481390  0.74356583  0.03685386    -0.10600
C253        C  0.17598660  0.70746178  0.04561379    -0.09900
C254        C  0.18414832  0.69351445  0.10201280    -0.00800
C255        C  0.17107046  0.71700355  0.14954615    -0.10900
C256        C  0.15008476  0.75361619  0.14076290    -0.09400
H257        H  0.14902083  0.75382489  0.49284628     0.08600
H258        H  0.18581846  0.69015268  0.00819557     0.12300
H259        H  0.17713678  0.70720182  0.19349539     0.12000
H260        H  0.14012359  0.77081123  0.17810170     0.08500
C261        C  0.09619124  0.19194467  0.40497690    -0.10600
C262        C  0.11874304  0.20047208  0.44377654     0.06600
C263        C  0.11999725  0.17174943  0.49528994    -0.09300
C264        C  0.09894080  0.13647806  0.00827247    -0.11000
C265        C  0.07640793  0.12850302  0.46964936    -0.00800
C266        C  0.07538181  0.15602679  0.41759342    -0.09900
C267        C  0.14069072  0.23942056  0.43105576     0.06600
H268        H  0.13734021  0.17631621  0.02562825     0.08500
H269        H  0.10016736  0.11530708  0.04849573     0.12000
H270        H  0.05819732  0.15016106  0.38714743     0.12300
H271        H  0.09424946  0.21368224  0.36533425     0.08600
C272        C  0.14952286  0.24906730  0.37377809    -0.10600
C273        C  0.17046112  0.28517979  0.36236092    -0.09900
C274        C  0.18326558  0.31188555  0.40801633    -0.00800
C275        C  0.17425862  0.30278910  0.46503747    -0.10900
C276        C  0.15311138  0.26730976  0.47638889    -0.09400
H277        H  0.14075724  0.22794744  0.33778145     0.08600
H278        H  0.17709093  0.29133243  0.31797681     0.12300
H279        H  0.18356757  0.32318559  0.50106378     0.12000
H280        H  0.14637918  0.26213728  0.02080813     0.08500
N281        N  0.04563842  0.00359259  0.51618388    -0.36300
N282        N  0.00260117  0.07929737  0.99222097    -0.56900
N283        N  0.95891305  0.00589907  0.02141746    -0.36300
N284        N  0.00199459  0.92858246  0.53885420    -0.56900
C285        C  0.06141420  0.03988741  0.99020970     0.27300
C286        C  0.06112218  0.96050461  0.51614302     0.27300
C287        C  0.94293678  0.04349503  0.99845344     0.27300
C288        C  0.94259097  0.96378304  0.52292916     0.27300
C289        C  0.02572513  0.10927075  0.98964851     0.35900
C290        C  0.97994578  0.11049381  0.99230417     0.35900
C291        C  0.02488717  0.90159940  0.55573222     0.35900
C292        C  0.97909216  0.90243766  0.55704711     0.35900
C293        C  0.08719840  0.01956185  0.97349175    -0.21600
C294        C  0.08702795  0.96949172  0.48999529    -0.21600
C295        C  0.91604339  0.02526706  0.98635832    -0.21600
C296        C  0.91581895  0.97502495  0.50176586    -0.21600
C297        C  0.01768538  0.15978463  0.98823069    -0.22700
C298        C  0.98866213  0.16052185  0.98947770    -0.22700
C299        C  0.01647877  0.85801766  0.58453745    -0.22700
C300        C  0.98743715  0.85842835  0.58509019    -0.22700
C301        C  0.05381362  0.09148680  0.98408790    -0.18000
C302        C  0.05316309  0.91406855  0.54200660    -0.18000
C303        C  0.95075457  0.91603120  0.54529334    -0.18000
C304        C  0.95150209  0.09433024  0.99031523    -0.18000
H305        H  0.10444569  0.03885471  0.95199409     0.14900
H306        H  0.10412814  0.94281421  0.48369609     0.14900
H307        H  0.89832761  0.04604545  0.96835273     0.14900
H308        H  0.89792634  0.94966608  0.49795658     0.14900
H309        H  0.03124145  0.19272006  0.98565797     0.13200
H310        H  0.97548193  0.19401870  0.98785508     0.13200
H311        H  0.02983604  0.82864492  0.60262284     0.13200
H312        H  0.97399600  0.82949166  0.60366332     0.13200
H313        H  0.02695238  0.00934347  0.53885799     0.26400
H314        H  0.97873586  0.01004478  0.04035577     0.26400
O315        O  0.30129727  0.61158936  0.62096243    -0.57500
C316        C  0.25344893  0.51799656  0.52799160     0.75100
O317        O  0.22815874  0.52407092  0.69829517    -0.58700
C318        C  0.29695855  0.65507451  0.64227478     0.75100
C319        C  0.20648831  0.65526406  0.61098976     0.77500
Cd320      Cd  0.25143526  0.58345409  0.62876882     1.37500
O321        O  0.27574966  0.53726654  0.54886781    -0.57500
O322        O  0.22269343  0.64175697  0.57019780    -0.56300
C323        C  0.24949954  0.51974488  0.73110574     0.77400
O324        O  0.21061918  0.63450844  0.65988294    -0.58700
O325        O  0.23058616  0.52863887  0.55348014    -0.57200
O326        O  0.27179130  0.66500404  0.65671564    -0.57200
O327        O  0.27113213  0.54484699  0.71710784    -0.56300
O328        O  0.29301905  0.36201817  0.91076534    -0.57500
C329        C  0.25380478  0.48471914  0.97701035     0.75100
O330        O  0.22870853  0.45953602  0.79598169    -0.58700
C331        C  0.29858743  0.34512987  0.86076877     0.75100
C332        C  0.20652998  0.34797582  0.89698401     0.77500
Cd333      Cd  0.25295395  0.41698209  0.87862330     1.37500
O334        O  0.27659977  0.47019577  0.95355278    -0.57500
O335        O  0.22135577  0.36538812  0.93807298    -0.56300
C336        C  0.24976522  0.48647234  0.78207418     0.77400
O337        O  0.21294505  0.36279649  0.84645017    -0.58700
O338        O  0.23103628  0.46888864  0.95454665    -0.57200
O339        O  0.28355028  0.36212339  0.81976855    -0.57200
O340        O  0.27157427  0.48256499  0.81363730    -0.56300
N341        N  0.45915538  0.99891102  0.74382466    -0.36300
N342        N  0.50221059  0.07420524  0.76956328    -0.56900
N343        N  0.54578283  0.00212408  0.73591739    -0.36300
N344        N  0.50270726  0.92496592  0.71766671    -0.56900
C345        C  0.44367082  0.03420432  0.77202162     0.27300
C346        C  0.44388941  0.95556944  0.74360939     0.27300
C347        C  0.56189850  0.03953334  0.75856394     0.27300
C348        C  0.56217762  0.96024284  0.73252217     0.27300
C349        C  0.47894663  0.10392294  0.77149743     0.35900
C350        C  0.52465058  0.10578785  0.76642609     0.35900
C351        C  0.47976422  0.89871871  0.69971829     0.35900
C352        C  0.52549930  0.90017881  0.69678385     0.35900
C353        C  0.41832025  0.01298275  0.78999910    -0.21600
C354        C  0.41844018  0.96339266  0.77199284    -0.21600
C355        C  0.58898916  0.02141410  0.76905173    -0.21600
C356        C  0.58916188  0.97132462  0.75262654    -0.21600
C357        C  0.48667697  0.15454610  0.76967074    -0.22700
C358        C  0.51565298  0.15571427  0.76680106    -0.22700
C359        C  0.48805027  0.85705722  0.66743389    -0.22700
C360        C  0.51704952  0.85774775  0.66601841    -0.22700
C361        C  0.45099513  0.08587672  0.77840415    -0.18000
C362        C  0.45159721  0.91008426  0.71543491    -0.18000
C363        C  0.55387796  0.91332192  0.70841131    -0.18000
C364        C  0.55323085  0.09026310  0.76677194    -0.18000
H365        H  0.40135969  0.03141436  0.81328482     0.14900
H366        H  0.40161311  0.93625148  0.77879239     0.14900
H367        H  0.60685251  0.04223016  0.78628195     0.14900
H368        H  0.60720220  0.94612460  0.75462779     0.14900
H369        H  0.47293804  0.18730502  0.77055544     0.13200
H370        H  0.52861925  0.18946465  0.76526558     0.13200
H371        H  0.47466908  0.82878273  0.64740143     0.13200
H372        H  0.53038957  0.83009468  0.64487752     0.13200
H373        H  0.47739421  0.00566100  0.71995655     0.26400
H374        H  0.52578494  0.00650839  0.71784095     0.26400
O375        O  0.77614541  0.52901295  0.69465637    -0.57500
C376        C  0.79708655  0.65564023  0.60478598     0.75100
O377        O  0.72927293  0.52292877  0.55229881    -0.58700
C378        C  0.75362071  0.51616236  0.72032417     0.75100
C379        C  0.70566705  0.65342443  0.63521141     0.77500
Cd380      Cd  0.75193342  0.58317452  0.62078305     1.37500
O381        O  0.79479306  0.63029657  0.65126562    -0.57500
O382        O  0.72508667  0.64789403  0.67251594    -0.56300
C383        C  0.75127116  0.51539024  0.52244234     0.77400
O384        O  0.70744834  0.62620912  0.59020770    -0.58700
O385        O  0.77869672  0.64710355  0.56602466    -0.57200
O386        O  0.73079805  0.53365577  0.69992737    -0.57200
O387        O  0.77342256  0.53829684  0.53836858    -0.56300
O388        O  0.70397291  0.38182683  0.88225911    -0.57500
C389        C  0.75129356  0.48208624  0.97168043     0.75100
O390        O  0.79773623  0.37425130  0.85286662    -0.58700
C391        C  0.70688454  0.34658096  0.84558475     0.75100
C392        C  0.75360198  0.48274051  0.77125695     0.77500
Cd393      Cd  0.75217619  0.41639055  0.87132835     1.37500
O394        O  0.72997489  0.45581911  0.95779535    -0.57500
O395        O  0.73088550  0.47185504  0.79718648    -0.56300
C396        C  0.79672280  0.34524512  0.89659611     0.77400
O397        O  0.77602944  0.46340500  0.79149472    -0.58700
O398        O  0.77271806  0.47839995  0.93933234    -0.57200
O399        O  0.73064665  0.34394850  0.82060794    -0.57200
O400        O  0.77522268  0.34956844  0.92879193    -0.56300
C401        C  0.61015484  0.83660309  0.63183610    -0.10600
C402        C  0.61630273  0.79922258  0.67354866     0.06600
C403        C  0.60169298  0.79981721  0.72661695    -0.09300
C404        C  0.58161130  0.83723912  0.73799839    -0.11000
C405        C  0.57588602  0.87481337  0.69667603    -0.00800
C406        C  0.59014532  0.87427832  0.64345500    -0.09900
C407        C  0.63873092  0.76101476  0.66311741     0.06600
H408        H  0.60572944  0.77114168  0.75924289     0.08500
H409        H  0.57046711  0.83692759  0.77898486     0.12000
H410        H  0.58568611  0.90291167  0.61100090     0.12300
H411        H  0.62126102  0.83732612  0.59083287     0.08600
C412        C  0.64124280  0.73648386  0.60926203    -0.10600
C413        C  0.66280424  0.70098147  0.60004224    -0.09900
C414        C  0.68235565  0.68985694  0.64434279    -0.00800
C415        C  0.67975394  0.71440104  0.69802856    -0.10900
C416        C  0.65817468  0.74942059  0.70734359    -0.09400
H417        H  0.62640884  0.74446203  0.57453297     0.08600
H418        H  0.66431983  0.68259010  0.55822067     0.12300
H419        H  0.69449614  0.70665570  0.73299003     0.12000
H420        H  0.65702723  0.76821592  0.74897673     0.08500
C421        C  0.66657685  0.23563077  0.78216034    -0.10600
C422        C  0.64015798  0.24002944  0.80960718     0.06600
C423        C  0.63584068  0.28017952  0.84857731    -0.09300
C424        C  0.65746978  0.31487625  0.86009863    -0.11000
C425        C  0.68386949  0.31028658  0.83280563    -0.00800
C426        C  0.68817568  0.27039787  0.79358658    -0.09900
C427        C  0.61739167  0.20242699  0.79828778     0.06600
H428        H  0.61563124  0.28507510  0.86982945     0.08500
H429        H  0.65350635  0.34533367  0.89038866     0.12000
H430        H  0.70834261  0.26577004  0.77205671     0.12300
H431        H  0.67076124  0.20472552  0.75261366     0.08600
C432        C  0.61310523  0.18285921  0.74218877    -0.10600
C433        C  0.59226523  0.14637182  0.73199165    -0.09900
C434        C  0.57525338  0.12908117  0.77756448    -0.00800
C435        C  0.57911704  0.14886060  0.83338150    -0.10900
C436        C  0.60005297  0.18512289  0.84372724    -0.09400
H437        H  0.62575695  0.19597045  0.70609258     0.08600
H438        H  0.58932319  0.13165143  0.68856927     0.12300
H439        H  0.56609858  0.13576769  0.86896715     0.12000
H440        H  0.60302908  0.19886557  0.88753285     0.08500
C441        C  0.34912320  0.25750900  0.78294309    -0.10600
C442        C  0.36332445  0.23348547  0.82917236     0.06600
C443        C  0.35616218  0.24727720  0.88629730    -0.09300
C444        C  0.33541887  0.28400723  0.89673697    -0.11000
C445        C  0.32112852  0.30733777  0.85036093    -0.00800
C446        C  0.32817341  0.29359738  0.79342084    -0.09900
C447        C  0.38547601  0.19449375  0.81750105     0.06600
H448        H  0.36620051  0.22914728  0.92311656     0.08500
H449        H  0.33028660  0.29361795  0.94112165     0.12000
H450        H  0.31762439  0.31108570  0.75673691     0.12300
H451        H  0.35441794  0.24908710  0.73836528     0.08600
C452        C  0.38346081  0.16290956  0.76847285    -0.10600
C453        C  0.40470332  0.12787084  0.75598330    -0.09900
C454        C  0.42820648  0.12271939  0.79276840    -0.00800
C455        C  0.43002573  0.15305850  0.84257160    -0.10900
C456        C  0.40904724  0.18889954  0.85453290    -0.09400
H457        H  0.36537788  0.16494331  0.73967296     0.08600
H458        H  0.40283578  0.10468678  0.71744814     0.12300
H459        H  0.44794953  0.14949182  0.87168969     0.12000
H460        H  0.41166310  0.21285300  0.89218816     0.08500
C461        C  0.40940544  0.78784312  0.71440984    -0.10600
C462        C  0.38620361  0.80102246  0.67927014     0.06600
C463        C  0.38463356  0.85017630  0.65607030    -0.09300
C464        C  0.40597973  0.88539701  0.66754105    -0.11000
C465        C  0.42906864  0.87226892  0.70295435    -0.00800
C466        C  0.43053381  0.82329908  0.72655781    -0.09900
C467        C  0.36339576  0.76387728  0.66801192     0.06600
H468        H  0.36702467  0.86113789  0.62861573     0.08500
H469        H  0.40452308  0.92297662  0.64886797     0.12000
H470        H  0.44804445  0.81262840  0.75442731     0.12300
H471        H  0.41088923  0.75039229  0.73338584     0.08600
C472        C  0.36990133  0.71394065  0.65190339    -0.10600
C473        C  0.34831677  0.67859613  0.64275439    -0.09900
C474        C  0.31987497  0.69245447  0.65024253    -0.00800
C475        C  0.31340535  0.74245325  0.66620775    -0.10900
C476        C  0.33494397  0.77789340  0.67463682    -0.09400
H477        H  0.39169589  0.70236531  0.64615136     0.08600
H478        H  0.35389155  0.64032515  0.63047513     0.12300
H479        H  0.29166041  0.75421207  0.67225629     0.12000
H480        H  0.32940378  0.81603072  0.68754174     0.08500
C481        C  0.83820424  0.23977059  0.96865067    -0.10600
C482        C  0.86284087  0.23790961  0.93458930     0.06600
C483        C  0.86523975  0.27135883  0.88726362    -0.09300
C484        C  0.84369539  0.30600107  0.87469660    -0.11000
C485        C  0.81935678  0.30823041  0.90936616    -0.00800
C486        C  0.81678953  0.27467692  0.95635226    -0.09900
C487        C  0.88599752  0.20163571  0.94882056     0.06600
H488        H  0.88402955  0.27157117  0.86054745     0.08500
H489        H  0.84624653  0.33143583  0.83818442     0.12000
H490        H  0.79815031  0.27523343  0.98355547     0.12300
H491        H  0.83529586  0.21391602  0.00462220     0.08600
C492        C  0.89237727  0.18962060  0.00697616    -0.10600
C493        C  0.91378952  0.15501384  0.02043696    -0.09900
C494        C  0.92943139  0.13225039  0.97611729    -0.00800
C495        C  0.92354534  0.14444342  0.91815921    -0.10900
C496        C  0.90193402  0.17865108  0.90455842    -0.09400
H497        H  0.88100848  0.20729604  0.04223084     0.08600
H498        H  0.91876983  0.14709283  0.56543507     0.12300
H499        H  0.93540658  0.12680298  0.88351649     0.12000
H500        H  0.89738537  0.18630815  0.85934551     0.08500
C501        C  0.84482587  0.75275873  0.53356385    -0.10600
C502        C  0.86294065  0.76622635  0.57946410     0.06600
C503        C  0.85932304  0.74275627  0.63371903    -0.09300
C504        C  0.83809438  0.70653041  0.64187656    -0.11000
C505        C  0.81987448  0.69334147  0.59608014    -0.00800
C506        C  0.82344594  0.71687671  0.54185128    -0.09900
C507        C  0.88551662  0.80462951  0.57079857     0.06600
H508        H  0.87315785  0.75200289  0.66969783     0.08500
H509        H  0.83585442  0.68903460  0.68413194     0.12000
H510        H  0.80970773  0.70754198  0.50573973     0.12300
H511        H  0.84700860  0.77050987  0.99147786     0.08600
C512        C  0.90236085  0.80385370  0.52060699    -0.10600
C513        C  0.92372832  0.83980735  0.51266038    -0.09900
C514        C  0.92843003  0.87737806  0.55445680    -0.00800
C515        C  0.91161591  0.87858513  0.60439668    -0.10900
C516        C  0.89041168  0.84234768  0.61266547    -0.09400
H517        H  0.89924782  0.77500440  0.48789235     0.08600
H518        H  0.93655185  0.83853601  0.47383134     0.12300
H519        H  0.91494862  0.90757685  0.63686926     0.12000
H520        H  0.87756226  0.84421318  0.65140850     0.08500
C521        C  0.09766209  0.79519965  0.53243332    -0.10600
C522        C  0.11864236  0.80438948  0.57449234     0.06600
C523        C  0.11772034  0.84970203  0.60634314    -0.09300
C524        C  0.09642225  0.88534108  0.59574311    -0.11000
C525        C  0.07560813  0.87601460  0.55356316    -0.00800
C526        C  0.07633562  0.83070085  0.52207065    -0.09900
C527        C  0.14155808  0.76695049  0.58426824     0.06600
H528        H  0.13375131  0.85793738  0.63863527     0.08500
H529        H  0.09614721  0.92025720  0.62030786     0.12000
H530        H  0.06041966  0.82298815  0.48936045     0.12300
H531        H  0.09766378  0.76033974  0.50778493     0.08600
C532        C  0.15485880  0.74372565  0.53683202    -0.10600
C533        C  0.17603283  0.70762301  0.54558763    -0.09900
C534        C  0.18414809  0.69358365  0.60198545    -0.00800
C535        C  0.17102724  0.71698842  0.64952364    -0.10900
C536        C  0.15004188  0.75360217  0.64074592    -0.09400
H537        H  0.14894566  0.75359939  0.99286545     0.08600
H538        H  0.18589923  0.69038209  0.50816638     0.12300
H539        H  0.17705799  0.70711713  0.69347287     0.12000
H540        H  0.14004520  0.77073013  0.67808537     0.08500
C541        C  0.09621069  0.19194043  0.90496957    -0.10600
C542        C  0.11875311  0.20048960  0.94378543     0.06600
C543        C  0.11999455  0.17179887  0.99532329    -0.09300
C544        C  0.09894394  0.13642775  0.50823913    -0.11000
C545        C  0.07641649  0.12852681  0.96966143    -0.00800
C546        C  0.07539991  0.15602649  0.91758913    -0.09900
C547        C  0.14070535  0.23942536  0.93105198     0.06600
H548        H  0.13735121  0.17624627  0.52557880     0.08500
H549        H  0.10017884  0.11523811  0.54844859     0.12000
H550        H  0.05822351  0.15014041  0.88712923     0.12300
H551        H  0.09427855  0.21365588  0.86530902     0.08600
C552        C  0.14955558  0.24902321  0.87377547    -0.10600
C553        C  0.17049561  0.28512933  0.86234539    -0.09900
C554        C  0.18328275  0.31187813  0.90798797    -0.00800
C555        C  0.17425983  0.30282556  0.96500785    -0.10900
C556        C  0.15311148  0.26735165  0.97637088    -0.09400
H557        H  0.14080142  0.22787164  0.83779156     0.08600
H558        H  0.17713818  0.29124747  0.81796311     0.12300
H559        H  0.18355582  0.32325453  0.00102403     0.12000
H560        H  0.14639238  0.26206108  0.52082942     0.08500
loop_ 
_geom_bond_atom_site_label_1 
_geom_bond_atom_site_label_2 
_geom_bond_distance 
_geom_bond_site_symmetry_2 
_ccdc_geom_bond_type 
N1            C6   1.353   1_545  A
N1          C285   1.353   1_554  A
N1           H33   1.039       .  S
N2            C9   1.351       .  A
N2           C10   1.351   1_455  A
N3            C7   1.353       .  A
N3          C288   1.354   1_545  A
N3           H34   1.038       .  S
N4           C11   1.351       .  A
N4           C12   1.351   1_455  A
C5          N281   1.353       .  A
C5           C13   1.388       .  A
C5           C21   1.416       .  A
C6           C22   1.414       .  A
C6           C14   1.387   1_554  A
C7           C15   1.387       .  A
C7           C24   1.415       .  A
C8          N283   1.354   1_565  A
C8           C23   1.415       .  A
C8           C16   1.387       .  A
C9           C21   1.414       .  A
C9           C17   1.387       .  A
C10          C24   1.411       .  A
C10          C18   1.386       .  A
C11          C19   1.387       .  A
C11          C22   1.413       .  A
C12          C20   1.386       .  A
C12          C23   1.412       .  A
C13         C294   1.375   1_545  A
C13          H25   1.082       .  S
C14         C293   1.375   1_565  A
C14          H26   1.082       .  S
C15         C296   1.374   1_545  A
C15          H27   1.082       .  S
C16         C295   1.374   1_564  A
C16          H28   1.082   1_554  S
C17          C18   1.372   1_455  A
C17          H29   1.082       .  S
C18          H30   1.082       .  S
C19          C20   1.373   1_455  A
C19          H31   1.082       .  S
C20          H32   1.082       .  S
C21         C265   1.487       .  S
C22         C245   1.484       .  S
C23         C234   1.484       .  S
C24         C214   1.481       .  S
O35          C38   1.267       .  A
O35         Cd40   2.478       .  S
C36         C329   1.469   1_554  S
C36          O45   1.263       .  A
C36          O41   1.265       .  A
O37          C43   1.264       .  A
O37         Cd40   2.498       .  S
C38         C194   1.477       .  S
C38          O46   1.264       .  A
C39         C254   1.476       .  S
C39          O44   1.267       .  A
C39          O42   1.266       .  A
Cd40         O47   2.456       .  S
Cd40         O46   2.446       .  S
Cd40         O45   2.465       .  S
Cd40         O41   2.495       .  S
Cd40         O44   2.463       .  S
Cd40         O42   2.454       .  S
C43          C56   1.466       .  S
C43          O47   1.261       .  A
O48          C51   1.265       .  A
O48         Cd53   2.496       .  S
C49         C316   1.469       .  S
C49          O58   1.264       .  A
C49          O54   1.267       .  A
O50          C56   1.265       .  A
O50         Cd53   2.487       .  S
C51         C165   1.480       .  S
C51          O59   1.263       .  A
C52         C274   1.477       .  S
C52          O57   1.266       .  A
C52          O55   1.264       .  A
Cd53         O60   2.453       .  S
Cd53         O59   2.460       .  S
Cd53         O58   2.457       .  S
Cd53         O54   2.491       .  S
Cd53         O57   2.484       .  S
Cd53         O55   2.444       .  S
C56          O60   1.264       .  A
N61          C66   1.353       .  A
N61          C65   1.354   1_565  A
N61          H93   1.039   1_565  S
N62          C69   1.352       .  A
N62          C70   1.351       .  A
N63          C68   1.353   1_545  A
N63          C67   1.352       .  A
N63          H94   1.038       .  S
N64          C71   1.351       .  A
N64          C72   1.351       .  A
C65          C73   1.387       .  A
C65          C81   1.416       .  A
C66          C82   1.415       .  A
C66          C74   1.387       .  A
C67          C75   1.387       .  A
C67          C84   1.414       .  A
C68          C83   1.414       .  A
C68          C76   1.387       .  A
C69          C81   1.414       .  A
C69          C77   1.387       .  A
C70          C84   1.412       .  A
C70          C78   1.386       .  A
C71          C79   1.387       .  A
C71          C82   1.413       .  A
C72          C80   1.386       .  A
C72          C83   1.411       .  A
C73          C74   1.375   1_545  A
C73          H85   1.082       .  S
C74          H86   1.082       .  S
C75          C76   1.377   1_545  A
C75          H87   1.082       .  S
C76          H88   1.082       .  S
C77          C78   1.372       .  A
C77          H89   1.082       .  S
C78          H90   1.082       .  S
C79          C80   1.371       .  A
C79          H91   1.082       .  S
C80          H92   1.082       .  S
C81         C174   1.490       .  S
C82         C185   1.488       .  S
C83         C125   1.481       .  S
C84         C154   1.482       .  S
O95          C98   1.266       .  A
O95        Cd100   2.497       .  S
C96         C225   1.481       .  S
C96         O105   1.265       .  A
C96         O101   1.267       .  A
O97         C103   1.265       .  A
O97        Cd100   2.484       .  S
C98         C112   1.468       .  S
C98         O106   1.263       .  A
C99         C134   1.478       .  S
C99         O104   1.266       .  A
C99         O102   1.264       .  A
Cd100       O107   2.463       .  S
Cd100       O106   2.458       .  S
Cd100       O105   2.459       .  S
Cd100       O101   2.478       .  S
Cd100       O104   2.489       .  S
Cd100       O102   2.444       .  S
C103        C389   1.467   1_554  S
C103        O107   1.263       .  A
O108        C111   1.267       .  A
O108       Cd113   2.468       .  S
C109        C383   1.467       .  S
C109        O118   1.263       .  A
C109        O114   1.264       .  A
O110        C116   1.266       .  A
O110       Cd113   2.462       .  S
C111        C145   1.479       .  S
C111        O119   1.266       .  A
C112        O117   1.264       .  A
C112        O115   1.263       .  A
Cd113       O120   2.457       .  S
Cd113       O119   2.463       .  S
Cd113       O118   2.466       .  S
Cd113       O114   2.486       .  S
Cd113       O117   2.491       .  S
Cd113       O115   2.461       .  S
C116        C205   1.478       .  S
C116        O120   1.265       .  A
C121        C122   1.407       .  A
C121        C126   1.399       .  A
C121        H131   1.083       .  S
C122        C123   1.407       .  A
C122        C127   1.484       .  S
C123        C124   1.396       .  A
C123        H128   1.083       .  S
C124        C125   1.400       .  A
C124        H129   1.083       .  S
C125        C126   1.402       .  A
C126        H130   1.083       .  S
C127        C132   1.407       .  A
C127        C136   1.404       .  A
C132        C133   1.402       .  A
C132        H137   1.083       .  S
C133        C134   1.406       .  A
C133        H138   1.083       .  S
C134        C135   1.404       .  A
C135        C136   1.394       .  A
C135        H139   1.083       .  S
C136        H140   1.083       .  S
C141        C142   1.406       .  A
C141        C146   1.398       .  A
C141        H151   1.083       .  S
C142        C143   1.406       .  A
C142        C147   1.487       .  S
C143        C144   1.398       .  A
C143        H148   1.083       .  S
C144        C145   1.404       .  A
C144        H149   1.083       .  S
C145        C146   1.405       .  A
C146        H150   1.083       .  S
C147        C152   1.408       .  A
C147        C156   1.408       .  A
C152        C153   1.398       .  A
C152        H157   1.083       .  S
C153        C154   1.401       .  A
C153        H158   1.083       .  S
C154        C155   1.401       .  A
C155        C156   1.397       .  A
C155        H159   1.083       .  S
C156        H160   1.083       .  S
C161        C162   1.408       .  A
C161        C166   1.396       .  A
C161        H171   1.082       .  S
C162        C163   1.409       .  A
C162        C167   1.494       .  S
C163        C164   1.401       .  A
C163        H168   1.082       .  S
C164        C165   1.404       .  A
C164        H169   1.083       .  S
C165        C166   1.404       .  A
C166        H170   1.083       .  S
C167        C172   1.409       .  A
C167        C176   1.409       .  A
C172        C173   1.396       .  A
C172        H177   1.082       .  S
C173        C174   1.402       .  A
C173        H178   1.083       .  S
C174        C175   1.404       .  A
C175        C176   1.399       .  A
C175        H179   1.083       .  S
C176        H180   1.082       .  S
C181        C182   1.405       .  A
C181        C186   1.397       .  A
C181        H191   1.083       .  S
C182        C183   1.405       .  A
C182        C187   1.480       .  S
C183        C184   1.397       .  A
C183        H188   1.083       .  S
C184        C185   1.404       .  A
C184        H189   1.083       .  S
C185        C186   1.404       .  A
C186        H190   1.083       .  S
C187        C192   1.405       .  A
C187        C196   1.404       .  A
C192        C193   1.399       .  A
C192        H197   1.083       .  S
C193        C194   1.404       .  A
C193        H198   1.083       .  S
C194        C195   1.405       .  A
C195        C196   1.396       .  A
C195        H199   1.083       .  S
C196        H200   1.083       .  S
C201        C202   1.407       .  A
C201        C206   1.397       .  A
C201        H211   1.082       .  S
C202        C203   1.407       .  A
C202        C207   1.490       .  S
C203        C204   1.398       .  A
C203        H208   1.082       .  S
C204        C205   1.404       .  A
C204        H209   1.083       .  S
C205        C206   1.404       .  A
C206        H210   1.083       .  S
C207        C212   1.409       .  A
C207        C216   1.409       .  A
C212        C213   1.397       .  A
C212        H217   1.082       .  S
C213        C214   1.400       .  A
C213        H498   1.083       .  S
C214        C215   1.401       .  A
C215        C216   1.398       .  A
C215        H219   1.083       .  S
C216        H220   1.082       .  S
H218        C493   1.083       .  S
C221        C222   1.405       .  A
C221        C226   1.399       .  A
C221        H511   1.083   1_554  S
C222        C223   1.406       .  A
C222        C227   1.486       .  S
C223        C224   1.399       .  A
C223        H228   1.083       .  S
C224        C225   1.405       .  A
C224        H229   1.083       .  S
C225        C226   1.406       .  A
C226        H230   1.083       .  S
C227        C232   1.407       .  A
C227        C236   1.407       .  A
H231        C501   1.083       .  S
C232        C233   1.399       .  A
C232        H237   1.083   1_554  S
C233        C234   1.402       .  A
C233        H238   1.083   1_554  S
C234        C235   1.401       .  A
C235        C236   1.399       .  A
C235        H239   1.083       .  S
C236        H240   1.083       .  S
C241        C242   1.406       .  A
C241        C246   1.396       .  A
C241        H251   1.083       .  S
C242        C243   1.406       .  A
C242        C247   1.483       .  S
C243        C244   1.399       .  A
C243        H248   1.083       .  S
C244        C245   1.403       .  A
C244        H249   1.083       .  S
C245        C246   1.401       .  A
C246        H250   1.083   1_554  S
C247        C252   1.405       .  A
C247        C256   1.406       .  A
C252        C253   1.396       .  A
C252        H537   1.083   1_554  S
C253        C254   1.404       .  A
C253        H258   1.083       .  S
C254        C255   1.405       .  A
C255        C256   1.399       .  A
C255        H259   1.083       .  S
C256        H260   1.083       .  S
H257        C532   1.083       .  S
C261        C262   1.408       .  A
C261        C266   1.397       .  A
C261        H271   1.082       .  S
C262        C263   1.409       .  A
C262        C267   1.490       .  S
C263        C544   1.397       .  A
C263        H548   1.082       .  S
C264        C543   1.397   1_554  A
C264        C545   1.402   1_554  A
C264        H269   1.083       .  S
C265        C266   1.403       .  A
C265        C544   1.402       .  A
C266        H270   1.083       .  S
C267        C272   1.409       .  A
C267        C276   1.407       .  A
H268        C543   1.082   1_554  S
C272        C273   1.400       .  A
C272        H277   1.082       .  S
C273        C274   1.404       .  A
C273        H278   1.083       .  S
C274        C275   1.403       .  A
C275        C276   1.395       .  A
C275        H279   1.083       .  S
C276        H560   1.082       .  S
H280        C556   1.082   1_554  S
N281        C286   1.353   1_545  A
N281        H313   1.039       .  S
N282        C289   1.351       .  A
N282        C290   1.351   1_455  A
N283        C287   1.353   1_554  A
N283        H314   1.038       .  S
N284        C291   1.351       .  A
N284        C292   1.351   1_455  A
C285        C293   1.388       .  A
C285        C301   1.416       .  A
C286        C302   1.414       .  A
C286        C294   1.387       .  A
C287        C295   1.387       .  A
C287        C304   1.415       .  A
C288        C303   1.415       .  A
C288        C296   1.387       .  A
C289        C301   1.414       .  A
C289        C297   1.387       .  A
C290        C304   1.411       .  A
C290        C298   1.386       .  A
C291        C299   1.387       .  A
C291        C302   1.413       .  A
C292        C300   1.386       .  A
C292        C303   1.412       .  A
C293        H305   1.082       .  S
C294        H306   1.082       .  S
C295        H307   1.082       .  S
C296        H308   1.082       .  S
C297        C298   1.372   1_455  A
C297        H309   1.082       .  S
C298        H310   1.082       .  S
C299        C300   1.373   1_455  A
C299        H311   1.082       .  S
C300        H312   1.082       .  S
C301        C545   1.487       .  S
C302        C525   1.484       .  S
C303        C514   1.484       .  S
C304        C494   1.481       .  S
O315        C318   1.267       .  A
O315       Cd320   2.478       .  S
C316        O325   1.263       .  A
C316        O321   1.265       .  A
O317        C323   1.264       .  A
O317       Cd320   2.498       .  S
C318        C474   1.477       .  S
C318        O326   1.264       .  A
C319        C534   1.476       .  S
C319        O324   1.267       .  A
C319        O322   1.266       .  A
Cd320       O327   2.456       .  S
Cd320       O326   2.446       .  S
Cd320       O325   2.466       .  S
Cd320       O321   2.495       .  S
Cd320       O324   2.463       .  S
Cd320       O322   2.454       .  S
C323        C336   1.466       .  S
C323        O327   1.261       .  A
O328        C331   1.265       .  A
O328       Cd333   2.496       .  S
C329        O338   1.264       .  A
C329        O334   1.267       .  A
O330        C336   1.265       .  A
O330       Cd333   2.487       .  S
C331        C445   1.480       .  S
C331        O339   1.263       .  A
C332        C554   1.477       .  S
C332        O337   1.266       .  A
C332        O335   1.264       .  A
Cd333       O340   2.453       .  S
Cd333       O339   2.460       .  S
Cd333       O338   2.457       .  S
Cd333       O334   2.491       .  S
Cd333       O337   2.484       .  S
Cd333       O335   2.444       .  S
C336        O340   1.264       .  A
N341        C346   1.353       .  A
N341        C345   1.354   1_565  A
N341        H373   1.039   1_565  S
N342        C349   1.352       .  A
N342        C350   1.351       .  A
N343        C348   1.353   1_545  A
N343        C347   1.352       .  A
N343        H374   1.038       .  S
N344        C351   1.351       .  A
N344        C352   1.351       .  A
C345        C353   1.387       .  A
C345        C361   1.416       .  A
C346        C362   1.415       .  A
C346        C354   1.387       .  A
C347        C355   1.387       .  A
C347        C364   1.414       .  A
C348        C363   1.414       .  A
C348        C356   1.387       .  A
C349        C361   1.414       .  A
C349        C357   1.387       .  A
C350        C364   1.412       .  A
C350        C358   1.386       .  A
C351        C359   1.387       .  A
C351        C362   1.413       .  A
C352        C360   1.386       .  A
C352        C363   1.411       .  A
C353        C354   1.375   1_545  A
C353        H365   1.082       .  S
C354        H366   1.082       .  S
C355        C356   1.377   1_545  A
C355        H367   1.082       .  S
C356        H368   1.082       .  S
C357        C358   1.372       .  A
C357        H369   1.082       .  S
C358        H370   1.082       .  S
C359        C360   1.371       .  A
C359        H371   1.082       .  S
C360        H372   1.082       .  S
C361        C454   1.490       .  S
C362        C465   1.488       .  S
C363        C405   1.481       .  S
C364        C434   1.482       .  S
O375        C378   1.266       .  A
O375       Cd380   2.497       .  S
C376        C505   1.481       .  S
C376        O385   1.265       .  A
C376        O381   1.267       .  A
O377        C383   1.265       .  A
O377       Cd380   2.484       .  S
C378        C392   1.468       .  S
C378        O386   1.263       .  A
C379        C414   1.479       .  S
C379        O384   1.266       .  A
C379        O382   1.264       .  A
Cd380       O387   2.463       .  S
Cd380       O386   2.458       .  S
Cd380       O385   2.459       .  S
Cd380       O381   2.478       .  S
Cd380       O384   2.489       .  S
Cd380       O382   2.444       .  S
C383        O387   1.263       .  A
O388        C391   1.267       .  A
O388       Cd393   2.468       .  S
C389        O398   1.263       .  A
C389        O394   1.264       .  A
O390        C396   1.266       .  A
O390       Cd393   2.462       .  S
C391        C425   1.479       .  S
C391        O399   1.266       .  A
C392        O397   1.264       .  A
C392        O395   1.263       .  A
Cd393       O400   2.457       .  S
Cd393       O399   2.463       .  S
Cd393       O398   2.466       .  S
Cd393       O394   2.486       .  S
Cd393       O397   2.491       .  S
Cd393       O395   2.462       .  S
C396        C485   1.478       .  S
C396        O400   1.265       .  A
C401        C402   1.407       .  A
C401        C406   1.399       .  A
C401        H411   1.083       .  S
C402        C403   1.407       .  A
C402        C407   1.484       .  S
C403        C404   1.396       .  A
C403        H408   1.083       .  S
C404        C405   1.400       .  A
C404        H409   1.083       .  S
C405        C406   1.402       .  A
C406        H410   1.083       .  S
C407        C412   1.407       .  A
C407        C416   1.404       .  A
C412        C413   1.402       .  A
C412        H417   1.083       .  S
C413        C414   1.406       .  A
C413        H418   1.083       .  S
C414        C415   1.404       .  A
C415        C416   1.394       .  A
C415        H419   1.083       .  S
C416        H420   1.083       .  S
C421        C422   1.406       .  A
C421        C426   1.398       .  A
C421        H431   1.083       .  S
C422        C423   1.406       .  A
C422        C427   1.487       .  S
C423        C424   1.398       .  A
C423        H428   1.083       .  S
C424        C425   1.404       .  A
C424        H429   1.083       .  S
C425        C426   1.405       .  A
C426        H430   1.083       .  S
C427        C432   1.408       .  A
C427        C436   1.408       .  A
C432        C433   1.398       .  A
C432        H437   1.083       .  S
C433        C434   1.401       .  A
C433        H438   1.083       .  S
C434        C435   1.401       .  A
C435        C436   1.397       .  A
C435        H439   1.083       .  S
C436        H440   1.083       .  S
C441        C442   1.408       .  A
C441        C446   1.396       .  A
C441        H451   1.082       .  S
C442        C443   1.409       .  A
C442        C447   1.494       .  S
C443        C444   1.401       .  A
C443        H448   1.082       .  S
C444        C445   1.404       .  A
C444        H449   1.083       .  S
C445        C446   1.404       .  A
C446        H450   1.083       .  S
C447        C452   1.409       .  A
C447        C456   1.409       .  A
C452        C453   1.396       .  A
C452        H457   1.082       .  S
C453        C454   1.402       .  A
C453        H458   1.083       .  S
C454        C455   1.404       .  A
C455        C456   1.399       .  A
C455        H459   1.083       .  S
C456        H460   1.082       .  S
C461        C462   1.405       .  A
C461        C466   1.397       .  A
C461        H471   1.083       .  S
C462        C463   1.405       .  A
C462        C467   1.480       .  S
C463        C464   1.397       .  A
C463        H468   1.083       .  S
C464        C465   1.404       .  A
C464        H469   1.083       .  S
C465        C466   1.404       .  A
C466        H470   1.083       .  S
C467        C472   1.405       .  A
C467        C476   1.404       .  A
C472        C473   1.399       .  A
C472        H477   1.083       .  S
C473        C474   1.404       .  A
C473        H478   1.083       .  S
C474        C475   1.405       .  A
C475        C476   1.396       .  A
C475        H479   1.083       .  S
C476        H480   1.083       .  S
C481        C482   1.407       .  A
C481        C486   1.397       .  A
C481        H491   1.082   1_556  S
C482        C483   1.407       .  A
C482        C487   1.490       .  S
C483        C484   1.398       .  A
C483        H488   1.082       .  S
C484        C485   1.404       .  A
C484        H489   1.083       .  S
C485        C486   1.404       .  A
C486        H490   1.083       .  S
C487        C492   1.409   1_556  A
C487        C496   1.409       .  A
C492        C493   1.397       .  A
C492        H497   1.082       .  S
C493        C494   1.400   1_554  A
C494        C495   1.401       .  A
C495        C496   1.398       .  A
C495        H499   1.083       .  S
C496        H500   1.082       .  S
C501        C502   1.405       .  A
C501        C506   1.399       .  A
C502        C503   1.406       .  A
C502        C507   1.486       .  S
C503        C504   1.399       .  A
C503        H508   1.083       .  S
C504        C505   1.405       .  A
C504        H509   1.083       .  S
C505        C506   1.406       .  A
C506        H510   1.083       .  S
C507        C512   1.407       .  A
C507        C516   1.407       .  A
C512        C513   1.399       .  A
C512        H517   1.083       .  S
C513        C514   1.402       .  A
C513        H518   1.083       .  S
C514        C515   1.401       .  A
C515        C516   1.399       .  A
C515        H519   1.083       .  S
C516        H520   1.083       .  S
C521        C522   1.406       .  A
C521        C526   1.396       .  A
C521        H531   1.083       .  S
C522        C523   1.406       .  A
C522        C527   1.483       .  S
C523        C524   1.399       .  A
C523        H528   1.083       .  S
C524        C525   1.403       .  A
C524        H529   1.083       .  S
C525        C526   1.401       .  A
C526        H530   1.083       .  S
C527        C532   1.405       .  A
C527        C536   1.405       .  A
C532        C533   1.396       .  A
C533        C534   1.404       .  A
C533        H538   1.083       .  S
C534        C535   1.405       .  A
C535        C536   1.399       .  A
C535        H539   1.083       .  S
C536        H540   1.083       .  S
C541        C542   1.408       .  A
C541        C546   1.397       .  A
C541        H551   1.082       .  S
C542        C543   1.409       .  A
C542        C547   1.490       .  S
C544        H549   1.083       .  S
C545        C546   1.403       .  A
C546        H550   1.083       .  S
C547        C552   1.409       .  A
C547        C556   1.407       .  A
C552        C553   1.400       .  A
C552        H557   1.082       .  S
C553        C554   1.404       .  A
C553        H558   1.083       .  S
C554        C555   1.403       .  A
C555        C556   1.395       .  A
C555        H559   1.083   1_556  S
