geometry optimzed in LAMMPS
_audit_creation_date              2020-11-30 
_audit_creation_method            'lammps2cif' 
_symmetry_space_group_name_H-M    'P1' 
_symmetry_Int_Tables_number       1 
_symmetry_cell_setting            triclinic 
loop_ 
_symmetry_equiv_pos_as_xyz 
  x,y,z 
_cell_length_a                    45.37360364 
_cell_length_b                    45.69109806571816 
_cell_length_c                    40.989147548890784 
_cell_angle_alpha                 90.2514958782887 
_cell_angle_beta                  89.5915081069411 
_cell_angle_gamma                 119.89455617807079 
loop_ 
_atom_site_label 
_atom_site_type_symbol 
_atom_site_fract_x 
_atom_site_fract_y 
_atom_site_fract_z 
_atom_site_charge 
O1          O  0.46242807  0.48084583  0.47288368    -0.71600
O2          O  0.51928527  0.53652834  0.04091353    -0.71800
O3          O  0.52123589  0.53932147  0.47548938    -0.71700
O4          O  0.46020899  0.47795870  0.03831526    -0.71700
O5          O  0.48911082  0.45179356  0.03895088    -0.71700
O6          O  0.54796993  0.51115844  0.47302843    -0.71700
O7          O  0.54808061  0.51042248  0.03870805    -0.71600
O8          O  0.48880864  0.45233775  0.47299978    -0.71800
V9          V  0.49133850  0.50813273  0.50688292     1.35200
V10         V  0.51794931  0.48190388  0.00591914     1.35200
C11         C  0.46568227  0.45688618  0.46129981     0.77600
C12         C  0.54355524  0.53312276  0.05146377     0.77700
C13         C  0.54464805  0.53553079  0.46300862     0.77600
C14         C  0.46466248  0.45488358  0.04993120     0.77500
O15         O  0.96065739  0.46713405  0.46867463    -0.71600
O16         O  0.95430626  0.52235533  0.03466469    -0.71800
O17         O  0.95571955  0.52330204  0.46887883    -0.71700
O18         O  0.95965514  0.46663660  0.03432840    -0.71700
O19         O  0.01454852  0.49700646  0.03452867    -0.71700
O20         O  0.01056379  0.55430456  0.47005097    -0.71700
O21         O  0.00937283  0.55293959  0.03571535    -0.71600
O22         O  0.01570788  0.49847868  0.46857770    -0.71800
V23         V  0.95865080  0.49547655  0.00160985     1.35200
V24         V  0.01149059  0.52508021  0.00220706     1.35200
C25         C  0.98918989  0.47355534  0.45721913     0.77600
C26         C  0.98074578  0.54644873  0.04705735     0.77700
C27         C  0.98252299  0.54846783  0.45808167     0.77600
C28         C  0.98774536  0.47226583  0.04596938     0.77500
O29         O  0.46608183  0.02377039  0.45771864    -0.71600
O30         O  0.52831506  0.02443715  0.01944342    -0.71800
O31         O  0.52412415  0.02170753  0.45422823    -0.71700
O32         O  0.46998231  0.02627107  0.02327833    -0.71700
O33         O  0.44119895  0.97162548  0.02519157    -0.71700
O34         O  0.49539985  0.96705952  0.45671047    -0.71700
O35         O  0.49932148  0.96976722  0.02188753    -0.71600
O36         O  0.43737097  0.96914997  0.45962201    -0.71800
V37         V  0.49651932  0.02301102  0.98873450     1.35200
V38         V  0.46883915  0.97047166  0.99079745     1.35200
C39         C  0.44125328  0.99635755  0.44776236     0.77600
C40         C  0.52467051  0.99722993  0.03099698     0.77700
C41         C  0.51935751  0.99347074  0.44410652     0.77600
C42         C  0.44629265  0.99969217  0.03609501     0.77500
C43         C  0.02568276  0.75875977  0.24840145     0.86700
C44         C  0.02373582  0.73967641  0.27995182    -0.53600
C45         C  0.99476655  0.70902239  0.28323338     0.09600
C46         C  0.97033537  0.69972430  0.25433082     0.20500
C47         C  0.02054259  0.73322576  0.22100575    -0.54300
C48         C  0.99206262  0.70247652  0.22458969     0.09700
C49         C  0.99232739  0.75999207  0.24740359    -0.53800
C50         C  0.96344788  0.72928480  0.25117734     0.10300
H51         H  0.04428306  0.74911124  0.29752471     0.14800
H52         H  0.94708616  0.67457128  0.25628310     0.00500
H53         H  0.03700217  0.73783442  0.20016986     0.15100
H54         H  0.99165100  0.78324113  0.24432118     0.14900
C55         C  0.95412144  0.26512542  0.24880647     0.86700
C56         C  0.95442692  0.28769217  0.27705072    -0.53600
C57         C  0.98301614  0.31890438  0.27837786     0.09600
C58         C  0.00935355  0.32458199  0.25168104     0.20500
C59         C  0.96047221  0.28772692  0.21846924    -0.54300
C60         C  0.98939414  0.31850177  0.21994181     0.09700
C61         C  0.98701133  0.26373042  0.25221698    -0.53800
C62         C  0.01571731  0.29448280  0.25405236     0.10300
H63         H  0.93324271  0.28003125  0.29388797     0.14800
H64         H  0.03279454  0.34970535  0.25276948     0.00500
H65         H  0.94302748  0.28209262  0.19847195     0.15100
H66         H  0.98755976  0.24023433  0.25290922     0.14900
C67         C  0.24357168  0.30201154  0.25751920     0.86700
C68         C  0.26497848  0.31759207  0.28825039    -0.53600
C69         C  0.29546843  0.31838484  0.28812060     0.09600
C70         C  0.30215312  0.30378223  0.25692952     0.20500
C71         C  0.26739957  0.32249649  0.22899286    -0.54300
C72         C  0.29810538  0.32376075  0.22908085     0.09700
C73         C  0.24092598  0.26714696  0.25337377    -0.53800
C74         C  0.27146971  0.26793634  0.25406051     0.10300
H75         H  0.25710154  0.32819695  0.30795611     0.14800
H76         H  0.32713932  0.30489013  0.25624281     0.00500
H77         H  0.26078475  0.33442593  0.20979853     0.15100
H78         H  0.21703248  0.24380684  0.25024471     0.14900
C79         C  0.27922083  0.04914461  0.24086656     0.86700
C80         C  0.29561039  0.04483337  0.27174304    -0.53600
C81         C  0.29645866  0.01543690  0.27308531     0.09600
C82         C  0.28108365  0.99276567  0.24294909     0.20500
C83         C  0.29948893  0.04473799  0.21259441    -0.54300
C84         C  0.30056472  0.01548323  0.21395049     0.09700
C85         C  0.24407490  0.01686302  0.23836024    -0.53800
C86         C  0.24476347  0.98730011  0.24055017     0.10300
H87         H  0.30669492  0.06412818  0.29053379     0.14800
H88         H  0.28241552  0.96919366  0.24322062     0.00500
H89         H  0.31158938  0.06221563  0.19261716     0.15100
H90         H  0.22052697  0.01739346  0.23603164     0.14900
C91         C  0.73361902  0.03585165  0.24000552     0.86700
C92         C  0.71351174  0.03431250  0.20952616    -0.53600
C93         C  0.68244492  0.00603307  0.20723355     0.09600
C94         C  0.67444537  0.98048245  0.23535260     0.20500
C95         C  0.70939822  0.02943899  0.26888780    -0.54300
C96         C  0.67820167  0.00068007  0.26689106     0.09700
C97         C  0.73550847  0.00299250  0.23785938    -0.53800
C98         C  0.70472513  0.97393504  0.23583746     0.10300
H99         H  0.72254998  0.05462438  0.19178727     0.14800
H100        H  0.64994706  0.95693694  0.23318455     0.00500
H101        H  0.71646462  0.04718900  0.28900240     0.15100
H102        H  0.75860404  0.00163007  0.23812007     0.14900
C103        C  0.70118918  0.74945455  0.25540435     0.86700
C104        C  0.68215748  0.72495238  0.22751836    -0.53600
C105        C  0.68330924  0.69578735  0.22831388     0.09600
C106        C  0.70316209  0.69311594  0.25730576     0.20500
C107        C  0.68550828  0.72810998  0.28673519    -0.54300
C108        C  0.68677276  0.69883435  0.28764976     0.09700
C109        C  0.73734662  0.75429131  0.25445946    -0.53800
C110        C  0.73859467  0.72494960  0.25573032     0.10300
H111        H  0.66867762  0.73018952  0.20869740     0.14800
H112        H  0.70356052  0.66903136  0.25801026     0.00500
H113        H  0.67474751  0.73490325  0.30700627     0.15100
H114        H  0.76000562  0.77896723  0.25271179     0.14900
C115        C  0.71851542  0.83744465  0.22619749    -0.22300
C116        C  0.69977972  0.84469317  0.24870611     0.09700
C117        C  0.67947890  0.82025933  0.27195290     0.10100
C118        C  0.68016180  0.78990277  0.27360539    -0.17200
C119        C  0.70030097  0.78268966  0.25210427    -0.27600
C120        C  0.71819795  0.80654213  0.22669617     0.18400
C121        C  0.70047027  0.87741428  0.24627775     0.12400
C122        C  0.65630482  0.82586476  0.29445652    -0.12000
H123        H  0.66356462  0.77162094  0.29121719     0.12700
C124        C  0.73678495  0.80079083  0.19890145    -0.22800
H125        H  0.73297022  0.85587742  0.20747272     0.08300
C126        C  0.72241578  0.90538547  0.26554443     0.04600
C127        C  0.72233848  0.93590338  0.26200408    -0.20000
C128        C  0.70186767  0.93981442  0.23863672    -0.12300
C129        C  0.68040542  0.91157423  0.21882239     0.13300
C130        C  0.67961704  0.88073643  0.22339052    -0.22800
C131        C  0.74652053  0.90326690  0.28925032    -0.05800
H132        H  0.73869530  0.95700851  0.27753646     0.14900
C133        C  0.65925900  0.91283210  0.19145675    -0.16000
H134        H  0.66321733  0.85922681  0.20825976     0.09200
H135        H  0.76429717  0.81968397  0.20020381     0.07100
H136        H  0.72674675  0.80399032  0.17536014     0.08300
H137        H  0.73400185  0.77543633  0.19824663     0.07300
H138        H  0.63789838  0.82953937  0.27982782     0.02200
H139        H  0.67134167  0.84857315  0.30974733     0.02700
H140        H  0.64165496  0.80405310  0.31098875     0.06200
H141        H  0.76233342  0.92761418  0.30208260     0.05200
H142        H  0.76382697  0.89668383  0.27593144    -0.00600
H143        H  0.73212092  0.88363602  0.30788578     0.00900
H144        H  0.66632520  0.90509353  0.16830850     0.04500
H145        H  0.66316225  0.93818651  0.18765514     0.06500
H146        H  0.63191093  0.89536372  0.19664522     0.07300
C147        C  0.29298993  0.19863283  0.27139503    -0.22300
C148        C  0.27685447  0.17654328  0.24533218     0.09700
C149        C  0.25868243  0.18424300  0.22241677     0.10100
C150        C  0.25795248  0.21451237  0.22553415    -0.17200
C151        C  0.27435289  0.23693311  0.25146204    -0.27600
C152        C  0.29163877  0.22853758  0.27504897     0.18400
C153        C  0.27784317  0.14460008  0.24360526     0.12400
C154        C  0.23930393  0.16006231  0.19524944    -0.12000
H155        H  0.24423212  0.22060137  0.20778484     0.12700
C156        C  0.30679970  0.24958923  0.30523046    -0.22800
H157        H  0.30615287  0.19202722  0.28931828     0.08300
C158        C  0.30209501  0.14163026  0.22452680     0.04600
C159        C  0.30184377  0.11075320  0.22376407    -0.20000
C160        C  0.27821371  0.08243014  0.24216261    -0.12300
C161        C  0.25590348  0.08706649  0.26367681     0.13300
C162        C  0.25524749  0.11747169  0.26299687    -0.22800
C163        C  0.32895107  0.17143487  0.20573430    -0.05800
H164        H  0.32152681  0.10989437  0.20968682     0.14900
C165        C  0.23298859  0.06159315  0.28876258    -0.16000
H166        H  0.23758915  0.12049612  0.27868100     0.09200
H167        H  0.32846118  0.27465813  0.29882986     0.07100
H168        H  0.31658444  0.23756966  0.32220539     0.08300
H169        H  0.28704264  0.25255046  0.31843785     0.07300
H170        H  0.21994055  0.13546963  0.20570304     0.02200
H171        H  0.25689627  0.15602397  0.17943848     0.02700
H172        H  0.22600870  0.16970398  0.17976781     0.06200
H173        H  0.34642270  0.16509736  0.19237146     0.05200
H174        H  0.34434176  0.19244353  0.22283050    -0.00600
H175        H  0.31690330  0.18012019  0.18766290     0.00900
H176        H  0.23787810  0.07394261  0.31307034     0.04500
H177        H  0.23691378  0.03983406  0.29173524     0.06500
H178        H  0.20601038  0.05218669  0.28228028     0.07300
C179        C  0.09905886  0.30478167  0.28579323    -0.22300
C180        C  0.11328375  0.30017390  0.25708271     0.09700
C181        C  0.09478511  0.29259542  0.22768628     0.10100
C182        C  0.06368950  0.29236019  0.22723868    -0.17200
C183        C  0.04979157  0.29765615  0.25584124    -0.27600
C184        C  0.06706113  0.30260027  0.28571061     0.18400
C185        C  0.14684874  0.30190781  0.25864454     0.12400
C186        C  0.10680029  0.28281929  0.19731385    -0.12000
H187        H  0.04957357  0.28694133  0.20468123     0.12700
C188        C  0.05187453  0.30403737  0.31805080    -0.22800
H189        H  0.11264898  0.30925941  0.30858111     0.08300
C190        C  0.17660281  0.32977589  0.24626256     0.04600
C191        C  0.20722569  0.32909857  0.24624774    -0.20000
C192        C  0.20947918  0.30176671  0.25952278    -0.12300
C193        C  0.18052724  0.27679282  0.27696552     0.13300
C194        C  0.14930528  0.27614706  0.27450081    -0.22800
C195        C  0.17648043  0.36100924  0.23465385    -0.05800
H196        H  0.22973489  0.35091218  0.23686926     0.14900
C197        C  0.18141315  0.25160019  0.30004253    -0.16000
H198        H  0.12686647  0.25601099  0.28620723     0.09200
H199        H  0.06847834  0.32875109  0.32992460     0.07100
H200        H  0.05001477  0.28365934  0.33409999     0.08300
H201        H  0.02595823  0.30042277  0.31582846     0.07300
H202        H  0.10907969  0.26018012  0.20240178     0.02200
H203        H  0.13188012  0.30358253  0.18923910     0.02700
H204        H  0.08873020  0.27664907  0.17683698     0.06200
H205        H  0.20214379  0.38089517  0.22658168     0.05200
H206        H  0.16816046  0.37148448  0.25490797    -0.00600
H207        H  0.15891470  0.35510701  0.21389033     0.00900
H208        H  0.16988950  0.25245416  0.32377727     0.04500
H209        H  0.20739591  0.25698430  0.30580473     0.06500
H210        H  0.16646841  0.22575159  0.28979396     0.07300
C211        C  0.88108291  0.17701502  0.27574684    -0.22300
C212        C  0.86167923  0.16538884  0.24734521     0.09700
C213        C  0.87309994  0.18512390  0.21887062     0.10100
C214        C  0.90306376  0.21657075  0.21972851    -0.17200
C215        C  0.92229751  0.22956273  0.24856602    -0.27600
C216        C  0.91159026  0.20814184  0.27663105     0.18400
C217        C  0.82964823  0.13228079  0.24759834     0.12400
C218        C  0.85400528  0.17267767  0.18719980    -0.12000
H219        H  0.91138336  0.23005719  0.19704848     0.12700
C220        C  0.93135786  0.21623203  0.30806654    -0.22800
H221        H  0.87250041  0.16139320  0.29745540     0.08300
C222        C  0.82965953  0.10151317  0.24854161     0.04600
C223        C  0.79869795  0.07097299  0.24667157    -0.20000
C224        C  0.76712175  0.06990888  0.24345104    -0.12300
C225        C  0.76762332  0.10151438  0.24389723     0.13300
C226        C  0.79872676  0.13184255  0.24578756    -0.22800
C227        C  0.86248920  0.10086033  0.25076348    -0.05800
H228        H  0.80012308  0.04821472  0.24795899     0.14900
C229        C  0.73645887  0.10534890  0.24241574    -0.16000
H230        H  0.79890454  0.15568991  0.24561368     0.09200
H231        H  0.93671950  0.19558056  0.31367744     0.07100
H232        H  0.91592447  0.21804595  0.32827965     0.08300
H233        H  0.95610192  0.23980627  0.30762440     0.07300
H234        H  0.82817520  0.16939427  0.18978998     0.02200
H235        H  0.85186891  0.14813564  0.18043604     0.02700
H236        H  0.86701573  0.19065978  0.16687106     0.06200
H237        H  0.85816401  0.07469892  0.25024826     0.05200
H238        H  0.87560541  0.11274198  0.27390773    -0.00600
H239        H  0.87927255  0.11483054  0.22985794     0.00900
H240        H  0.73589301  0.11979057  0.26404529     0.04500
H241        H  0.71217814  0.08149564  0.24226804     0.06500
H242        H  0.73760361  0.11952919  0.22005479     0.07300
C243        C  0.09374773  0.85246138  0.26519744    -0.22300
C244        C  0.11890524  0.85811306  0.24213536     0.09700
C245        C  0.11485688  0.83122763  0.22223984     0.10100
C246        C  0.08484344  0.79983502  0.22451073    -0.17200
C247        C  0.05837350  0.79381648  0.24679302    -0.27600
C248        C  0.06416074  0.82071714  0.26854299     0.18400
C249        C  0.15075521  0.89142586  0.24136500     0.12400
C250        C  0.14296412  0.83518949  0.19955368    -0.12000
H251        H  0.08359732  0.77993074  0.20949012     0.12700
C252        C  0.04076510  0.81744572  0.29642827    -0.22800
H253        H  0.09771630  0.87288207  0.28146688     0.08300
C254        C  0.15671354  0.91613107  0.21767794     0.04600
C255        C  0.18793240  0.94663526  0.21747019    -0.20000
C256        C  0.21302609  0.95353989  0.24100708    -0.12300
C257        C  0.20615665  0.92920775  0.26568046     0.13300
C258        C  0.17537079  0.89834890  0.26515552    -0.22800
C259        C  0.12971487  0.91080208  0.19337463    -0.05800
H260        H  0.19264463  0.96541151  0.19901825     0.14900
C261        C  0.22978691  0.93609093  0.29394962    -0.16000
H262        H  0.17019567  0.87951845  0.28370588     0.09200
H263        H  0.03094216  0.83507839  0.29258798     0.07100
H264        H  0.05524024  0.82422264  0.31961163     0.08300
H265        H  0.01884452  0.79190777  0.29982624     0.07300
H266        H  0.16625708  0.84216213  0.21383494     0.02200
H267        H  0.14871240  0.85518998  0.18131305     0.02700
H268        H  0.13606555  0.81149753  0.18609785     0.06200
H269        H  0.13825307  0.93291954  0.17700383     0.05200
H270        H  0.10654634  0.90686290  0.20654027    -0.00600
H271        H  0.12310821  0.88837614  0.17799730     0.00900
H272        H  0.21855377  0.91559562  0.31240081     0.04500
H273        H  0.23486562  0.95976385  0.30626100     0.06500
H274        H  0.25387590  0.93789551  0.28564846     0.07300
C275        C  0.87382397  0.70843243  0.27608933    -0.22300
C276        C  0.86497961  0.72196525  0.24981522     0.09700
C277        C  0.88815194  0.73725218  0.22378397     0.10100
C278        C  0.91970781  0.73851290  0.22458664    -0.17200
C279        C  0.92880377  0.72519539  0.25097697    -0.27600
C280        C  0.90549517  0.70991482  0.27711677     0.18400
C281        C  0.83230132  0.72193927  0.25132904     0.12400
C282        C  0.88001920  0.75313309  0.19568240    -0.12000
H283        H  0.93762082  0.75035540  0.20468137     0.12700
C284        C  0.91436201  0.69683664  0.30699617    -0.22800
H285        H  0.85603337  0.69724704  0.29619806     0.08300
C286        C  0.80264274  0.69660405  0.23624530     0.04600
C287        C  0.77255151  0.69824265  0.23816618    -0.20000
C288        C  0.77095692  0.72379237  0.25608070    -0.12300
C289        C  0.80018586  0.74734372  0.27367489     0.13300
C290        C  0.83071790  0.74689861  0.26988509    -0.22800
C291        C  0.80256828  0.66746695  0.21881676    -0.05800
H292        H  0.75021937  0.67938312  0.22554052     0.14900
C293        C  0.79993027  0.77167036  0.29852460    -0.16000
H294        H  0.85325196  0.76540078  0.28266085     0.09200
H295        H  0.91741648  0.67490850  0.30070780     0.07100
H296        H  0.89414012  0.68827742  0.32595846     0.08300
H297        H  0.93820372  0.71715772  0.31778359     0.07300
H298        H  0.87558230  0.77350974  0.20488865     0.02200
H299        H  0.85688459  0.73393009  0.18296325     0.02700
H300        H  0.90111418  0.76431495  0.17757548     0.06200
H301        H  0.77711077  0.64955401  0.20881567     0.05200
H302        H  0.80970750  0.65344070  0.23612542    -0.00600
H303        H  0.82104409  0.67678968  0.19829670     0.00900
H304        H  0.81116331  0.76931048  0.32166825     0.04500
H305        H  0.77408750  0.76656550  0.30493073     0.06500
H306        H  0.81536482  0.79793285  0.28941133     0.07300
C307        C  0.60518591  0.02040229  0.07896815    -0.22300
C308        C  0.59221455  0.99548244  0.10315948     0.09700
C309        C  0.55743714  0.97088469  0.10322671     0.10100
C310        C  0.53626328  0.97177233  0.07895401    -0.17200
C311        C  0.54887625  0.99725296  0.05511467    -0.27600
C312        C  0.58396073  0.02182209  0.05501200     0.18400
C313        C  0.61508282  0.99725380  0.12957907     0.12400
C314        C  0.54262101  0.94407235  0.12922311    -0.12000
H315        H  0.50947239  0.95296897  0.07915743     0.12700
C316        C  0.59943967  0.04929700  0.02963552    -0.22800
H317        H  0.63196906  0.03923971  0.07930609     0.08300
C318        C  0.63558956  0.98222661  0.12662926     0.04600
C319        C  0.65738877  0.98552366  0.15230662    -0.20000
C320        C  0.65834877  0.00262817  0.18118824    -0.12300
C321        C  0.63894618  0.01914332  0.18324280     0.13300
C322        C  0.61730920  0.01586327  0.15755668    -0.22800
C323        C  0.63473962  0.96315648  0.09626680    -0.05800
H324        H  0.67446538  0.97559656  0.14929604     0.14900
C325        C  0.64077784  0.04099774  0.21170577    -0.16000
H326        H  0.60218050  0.02818208  0.15923077     0.09200
H327        H  0.62745602  0.06489142  0.03232320     0.07100
H328        H  0.58884216  0.06645706  0.03214009     0.08300
H329        H  0.59414902  0.03796094  0.00484627     0.07300
H330        H  0.54631908  0.95606722  0.15359791     0.02200
H331        H  0.55544144  0.92878151  0.12857702     0.02700
H332        H  0.51494428  0.92681128  0.12572190     0.06200
H333        H  0.65236423  0.95295578  0.09793363     0.05200
H334        H  0.64230929  0.98019020  0.07481000    -0.00600
H335        H  0.60864894  0.94165439  0.09251046     0.00900
H336        H  0.65131316  0.06745837  0.20335288     0.04500
H337        H  0.65671082  0.04066740  0.23179015     0.06500
H338        H  0.61487255  0.03196462  0.22178149     0.07300
C339        C  0.57033843  0.96460208  0.39220541    -0.22300
C340        C  0.58563781  0.99102507  0.36971320     0.09700
C341        C  0.57909114  0.01809079  0.37143001     0.10100
C342        C  0.55713277  0.01806091  0.39574303    -0.17200
C343        C  0.54152444  0.99152502  0.41838535    -0.27600
C344        C  0.54845074  0.96447656  0.41663986     0.18400
C345        C  0.60851544  0.98988826  0.34446915     0.12400
C346        C  0.59567421  0.04717162  0.34785068    -0.12000
H347        H  0.55209390  0.03886576  0.39701675     0.12700
C348        C  0.53399338  0.93594332  0.44097137    -0.22800
H349        H  0.57578142  0.94407093  0.39068334     0.08300
C350        C  0.64271951  0.00040591  0.35110837     0.04600
C351        C  0.66390536  0.00107103  0.32571614    -0.20000
C352        C  0.65193836  0.99168333  0.29350425    -0.12300
C353        C  0.61642789  0.97779974  0.28795515     0.13300
C354        C  0.59556848  0.97798676  0.31338961    -0.22800
C355        C  0.65704638  0.01176783  0.38480720    -0.05800
H356        H  0.69034781  0.00977825  0.33105183     0.14900
C357        C  0.59929309  0.96190538  0.25626294    -0.16000
H358        H  0.56877245  0.96864152  0.30913585     0.09200
H359        H  0.54395831  0.91839044  0.43697162     0.07100
H360        H  0.50593276  0.92099184  0.43864692     0.08300
H361        H  0.54093962  0.94620207  0.46610791     0.07300
H362        H  0.58817011  0.03785928  0.32251403     0.02200
H363        H  0.62374859  0.05953621  0.34996375     0.02700
H364        H  0.58809535  0.06644743  0.35274862     0.06200
H365        H  0.68447966  0.01968529  0.38576286     0.05200
H366        H  0.64330567  0.99075919  0.40238463    -0.00600
H367        H  0.65411355  0.03353519  0.39241774     0.00900
H368        H  0.59879790  0.93757962  0.25290920     0.04500
H369        H  0.61227654  0.97884603  0.23563412     0.06500
H370        H  0.57242922  0.95609307  0.25587542     0.07300
C371        C  0.36573443  0.97094600  0.39074308    -0.22300
C372        C  0.37745912  0.00050528  0.37242419     0.09700
C373        C  0.40941960  0.02872477  0.37930989     0.10100
C374        C  0.42946660  0.02639041  0.40389127    -0.17200
C375        C  0.41819237  0.99665288  0.42223578    -0.27600
C376        C  0.38558125  0.96855298  0.41562735     0.18400
C377        C  0.35528667  0.00182246  0.34689937     0.12400
C378        C  0.42203849  0.06155765  0.36123970    -0.12000
H379        H  0.45420736  0.04809401  0.40874466     0.12700
C380        C  0.37098174  0.93619665  0.43486081    -0.22800
H381        H  0.34082970  0.94965685  0.38550510     0.08300
C382        C  0.35930613  0.99615505  0.31373361     0.04600
C383        C  0.33883121  0.99962957  0.29034146    -0.20000
C384        C  0.31421828  0.00824823  0.29942476    -0.12300
C385        C  0.30886901  0.01183799  0.33299928     0.13300
C386        C  0.32984905  0.00902725  0.35621441    -0.22800
C387        C  0.38504842  0.98632091  0.30308047    -0.05800
H388        H  0.34270907  0.99647120  0.26474475     0.14900
C389        C  0.28088916  0.01768324  0.34549947    -0.16000
H390        H  0.32633222  0.01245959  0.38186948     0.09200
H391        H  0.34462528  0.91784328  0.42724979     0.07100
H392        H  0.37021734  0.94155170  0.46121098     0.08300
H393        H  0.38659126  0.92397453  0.43093524     0.07300
H394        H  0.40403411  0.07107993  0.36501144     0.02200
H395        H  0.42412220  0.05783561  0.33476025     0.02700
H396        H  0.44745761  0.08121431  0.36991280     0.06200
H397        H  0.38468479  0.98264096  0.27624872     0.05200
H398        H  0.37931855  0.96229113  0.31505546    -0.00600
H399        H  0.41103266  0.00619607  0.30993670     0.00900
H400        H  0.26492526  0.99758292  0.36326492     0.04500
H401        H  0.26373453  0.01694083  0.32611180     0.06500
H402        H  0.29212526  0.04254171  0.35796310     0.07300
C403        C  0.39889889  0.02753622  0.09475692    -0.22300
C404        C  0.38297964  0.99952581  0.11551522     0.09700
C405        C  0.38777509  0.97169239  0.11017311     0.10100
C406        C  0.40869440  0.97265901  0.08425185    -0.17200
C407        C  0.42502290  0.00084353  0.06341426    -0.27600
C408        C  0.41988564  0.02868446  0.06883227     0.18400
C409        C  0.36171044  0.00043675  0.14278585     0.12400
C410        C  0.37107841  0.94116184  0.13199237    -0.12000
H411        H  0.41246281  0.95126288  0.08040237     0.12700
C412        C  0.43553158  0.05935849  0.04709529    -0.22800
H413        H  0.39483959  0.04870987  0.09898707     0.08300
C414        C  0.37668162  0.02005027  0.17097315     0.04600
C415        C  0.35597277  0.02370712  0.19435914    -0.20000
C416        C  0.32065750  0.00783962  0.19034351    -0.12300
C417        C  0.30547635  0.98694829  0.16299291     0.13300
C418        C  0.32622233  0.98354711  0.13937038    -0.22800
C419        C  0.41450666  0.03721066  0.17624279    -0.05800
H420        H  0.36740072  0.03952850  0.21557932     0.14900
C421        C  0.26755046  0.96911965  0.15837762    -0.16000
H422        H  0.31486386  0.96844590  0.11773651     0.09200
H423        H  0.46364388  0.07261858  0.04904818     0.07100
H424        H  0.42722602  0.07766798  0.05405832     0.08300
H425        H  0.42782748  0.05168740  0.02141105     0.07300
H426        H  0.34302354  0.92948493  0.13062414     0.02200
H427        H  0.37928267  0.94873858  0.15758472     0.02700
H428        H  0.37789295  0.92181279  0.12476045     0.06200
H429        H  0.42193649  0.05100146  0.19983901     0.05200
H430        H  0.42807936  0.05565332  0.15641799    -0.00600
H431        H  0.42275030  0.01804680  0.17638203     0.00900
H432        H  0.25979265  0.95404924  0.13551918     0.04500
H433        H  0.25883957  0.98789668  0.15723324     0.06500
H434        H  0.25473023  0.95174566  0.17915634     0.07300
C435        C  0.95687340  0.57186242  0.12729590    -0.22300
C436        C  0.97598254  0.60706407  0.12513901     0.09700
C437        C  0.99652757  0.62228320  0.09740270     0.10100
C438        C  0.99738676  0.60181506  0.07221644    -0.17200
C439        C  0.97836361  0.56648013  0.07428525    -0.27600
C440        C  0.95818164  0.55127501  0.10247710     0.18400
C441        C  0.97649207  0.62769584  0.15325376     0.12400
C442        C  0.01771540  0.66013230  0.09457910    -0.12000
H443        H  0.01300542  0.61343337  0.05079882     0.12700
C444        C  0.93932212  0.51369298  0.10834677    -0.22800
H445        H  0.94178465  0.56038195  0.14904622     0.08300
C446        C  0.95263347  0.63877134  0.15671479     0.04600
C447        C  0.95709314  0.66189464  0.18157418    -0.20000
C448        C  0.98485709  0.67391333  0.20277831    -0.12300
C449        C  0.00712664  0.66066714  0.20083547     0.13300
C450        C  0.00278894  0.63791290  0.17587134    -0.22800
C451        C  0.92320125  0.62691937  0.13362843    -0.05800
H452        H  0.93980736  0.67175115  0.18357184     0.14900
C453        C  0.03572503  0.66998293  0.22456868    -0.16000
H454        H  0.02056660  0.62866330  0.17352275     0.09200
H455        H  0.91160376  0.50438922  0.10982364     0.07100
H456        H  0.94771430  0.50823179  0.13180392     0.08300
H457        H  0.94393109  0.49922723  0.08930880     0.07300
H458        H  0.03632711  0.67031278  0.11481466     0.02200
H459        H  0.00101900  0.67143760  0.09583640     0.02700
H460        H  0.03207282  0.66791709  0.07118650     0.06200
H461        H  0.90699255  0.63809646  0.13967625     0.05200
H462        H  0.90718855  0.59902172  0.13502849    -0.00600
H463        H  0.93279411  0.63424000  0.10827980     0.00900
H464        H  0.03259347  0.64671844  0.23627988     0.04500
H465        H  0.03651223  0.68692406  0.24435699     0.06500
H466        H  0.06041489  0.68265857  0.21132694     0.07300
C467        C  0.95343783  0.59148636  0.39623069    -0.22300
C468        C  0.98458083  0.61466763  0.38208504     0.09700
C469        C  0.01464042  0.61574824  0.39233888     0.10100
C470        C  0.01297019  0.59389883  0.41709121    -0.17200
C471        C  0.98183130  0.57057784  0.43177347    -0.27600
C472        C  0.95150458  0.56921956  0.42080115     0.18400
C473        C  0.98528189  0.63799471  0.35679975     0.12400
C474        C  0.04844016  0.63981009  0.37692366    -0.12000
H475        H  0.03629602  0.59501133  0.42482249     0.12700
C476        C  0.91701418  0.54486466  0.43476284    -0.22800
H477        H  0.93051390  0.59090745  0.38793688     0.08300
C478        C  0.97866468  0.62821662  0.32381509     0.04600
C479        C  0.98103395  0.65175152  0.30059595    -0.20000
C480        C  0.98970533  0.68478741  0.30964093    -0.12300
C481        C  0.99469550  0.69396190  0.34306335     0.13300
C482        C  0.99297406  0.67055849  0.36611163    -0.22800
C483        C  0.96974639  0.59318439  0.31311433    -0.05800
H484        H  0.97697606  0.64452834  0.27510071     0.14900
C485        C  0.00062707  0.72752068  0.35559641    -0.16000
H486        H  0.99736009  0.67764292  0.39165480     0.09200
H487        H  0.91091717  0.51851526  0.42991920     0.07100
H488        H  0.89657839  0.54810346  0.42360871     0.08300
H489        H  0.91665295  0.54909056  0.46141980     0.07300
H490        H  0.05425541  0.66622149  0.38074927     0.02200
H491        H  0.04757094  0.63469697  0.35033644     0.02700
H492        H  0.06945458  0.63718426  0.38754984     0.06200
H493        H  0.96561960  0.58978644  0.28636235     0.05200
H494        H  0.94603699  0.57429394  0.32554619    -0.00600
H495        H  0.99067984  0.58834193  0.31946913     0.00900
H496        H  0.98128876  0.72325833  0.37456211     0.04500
H497        H  0.99838046  0.74327517  0.33648041     0.06500
H498        H  0.02629233  0.74169482  0.36660788     0.07300
C499        C  0.96373921  0.37710764  0.33007621    -0.22300
C500        C  0.99223089  0.39210144  0.35036817     0.09700
C501        C  0.01913456  0.38553763  0.34492925     0.10100
C502        C  0.01606029  0.36258302  0.32038269    -0.17200
C503        C  0.98658871  0.34585915  0.30134239    -0.27600
C504        C  0.96095424  0.35480224  0.30505610     0.18400
C505        C  0.99279533  0.41378307  0.37771936     0.12400
C506        C  0.05089466  0.40256637  0.36521951    -0.12000
H507        H  0.03649131  0.35724581  0.31650736     0.12700
C508        C  0.93114605  0.34272905  0.28228442    -0.22800
H509        H  0.94363799  0.38311551  0.33361375     0.08300
C510        C  0.00384830  0.44837218  0.37337076     0.04600
C511        C  0.00337751  0.46754828  0.40009589    -0.20000
C512        C  0.99129548  0.45265762  0.43078160    -0.12300
C513        C  0.98008523  0.41795230  0.43506081     0.13300
C514        C  0.98111098  0.39901144  0.40846080    -0.22800
C515        C  0.01568373  0.46483760  0.34048408    -0.05800
H516        H  0.01162355  0.49407830  0.39684979     0.14900
C517        C  0.96745260  0.40020857  0.46736471    -0.16000
H518        H  0.97256514  0.37240436  0.41167398     0.09200
H519        H  0.93038967  0.36487890  0.27223137     0.07100
H520        H  0.90715435  0.32667030  0.29586735     0.08300
H521        H  0.93262617  0.32843329  0.26107675     0.07300
H522        H  0.04439449  0.39591696  0.39131218     0.02200
H523        H  0.06315575  0.43036975  0.36240015     0.02700
H524        H  0.06954434  0.39475538  0.35773953     0.06200
H525        H  0.02339932  0.49203348  0.34128033     0.05200
H526        H  0.99481844  0.45221579  0.32252474    -0.00600
H527        H  0.03784453  0.46268170  0.33212105     0.00900
H528        H  0.94067263  0.37963432  0.46488546     0.04500
H529        H  0.96860354  0.41720244  0.48729106     0.06500
H530        H  0.98325447  0.38906998  0.47475521     0.07300
C531        C  0.96473411  0.40609395  0.11330586    -0.22300
C532        C  0.99703080  0.41277585  0.12291429     0.09700
C533        C  0.02606421  0.43875421  0.10747906     0.10100
C534        C  0.02211434  0.45753760  0.08258665    -0.17200
C535        C  0.98970177  0.45093328  0.07249525    -0.34800
C536        C  0.96052476  0.42469855  0.08838195     0.18400
C537        C  0.99946389  0.39122830  0.14847318     0.12400
C538        C  0.06117941  0.44665617  0.11738121    -0.12000
H539        H  0.04465906  0.47747147  0.07089408     0.12700
C540        C  0.92478312  0.41579633  0.07961238    -0.22800
H541        H  0.94261585  0.38592646  0.12537079     0.08300
C542        C  0.99706731  0.39709848  0.18196621     0.04600
C543        C  0.99616055  0.37400344  0.20504044    -0.20000
C544        C  0.99699710  0.34494990  0.19523710    -0.12300
C545        C  0.00084870  0.33988873  0.16174957     0.13300
C546        C  0.00197449  0.36310262  0.13879185    -0.22800
C547        C  0.99464651  0.42725654  0.19320734    -0.05800
H548        H  0.99309322  0.37776584  0.23069897     0.14900
C549        C  0.00382272  0.31033299  0.14941059    -0.16000
H550        H  0.00408644  0.35884861  0.11304261     0.09200
H551        H  0.90551351  0.39486230  0.09486505     0.07100
H552        H  0.91960456  0.40744179  0.05378645     0.08300
H553        H  0.92129429  0.43791799  0.08354713     0.07300
H554        H  0.06411038  0.42419511  0.11336472     0.02200
H555        H  0.06517877  0.45368323  0.14360005     0.02700
H556        H  0.08122347  0.46794593  0.10305592     0.06200
H557        H  0.99299980  0.42813290  0.22021563     0.05200
H558        H  0.97160420  0.42620790  0.18283606    -0.00600
H559        H  0.01748972  0.45079963  0.18496302     0.00900
H560        H  0.98208759  0.29454502  0.13315724     0.04500
H561        H  0.00426723  0.29418435  0.16926715     0.06500
H562        H  0.02785793  0.31975781  0.13533054     0.07300
C563        C  0.65934582  0.64728058  0.14857906    -0.22300
C564        C  0.62630328  0.62137269  0.15575599     0.09700
C565        C  0.61305587  0.61833110  0.18759318     0.10100
C566        C  0.63267094  0.64241067  0.21125582    -0.17200
C567        C  0.66536759  0.66891519  0.20383410    -0.27600
C568        C  0.67904019  0.67122804  0.17229703     0.18400
C569        C  0.60532171  0.59899036  0.12901393     0.12400
C570        C  0.57813315  0.58995154  0.19640006    -0.12000
H571        H  0.62196507  0.64126340  0.23520049     0.12700
C572        C  0.71398488  0.69944938  0.16341777    -0.22800
H573        H  0.66929713  0.64932058  0.12406705     0.08300
C574        C  0.58377483  0.60654876  0.11075704     0.04600
C575        C  0.56416264  0.58463031  0.08570143    -0.20000
C576        C  0.56581385  0.55540370  0.07803409    -0.12300
C577        C  0.58807655  0.54827054  0.09623797     0.13300
C578        C  0.60741547  0.57018897  0.12154393    -0.22800
C579        C  0.58174085  0.63795689  0.11754659    -0.05800
H580        H  0.54758469  0.59061181  0.07187264     0.14900
C581        C  0.59157689  0.51763768  0.08973476    -0.16000
H582        H  0.62430847  0.56488053  0.13568436     0.09200
H583        H  0.72091910  0.69719654  0.13786440     0.07100
H584        H  0.73314459  0.69903019  0.17972045     0.08300
H585        H  0.71491605  0.72406536  0.16595845     0.07300
H586        H  0.57697535  0.56536550  0.19228549     0.02200
H587        H  0.55866743  0.59110311  0.18109772     0.02700
H588        H  0.57177906  0.59121537  0.22239923     0.06200
H589        H  0.56378531  0.64019899  0.10086398     0.05200
H590        H  0.60721580  0.66061838  0.11423552    -0.00600
H591        H  0.57292382  0.63751375  0.14294807     0.00900
H592        H  0.60176865  0.51897482  0.06475253     0.04500
H593        H  0.56653407  0.49433725  0.09247983     0.06500
H594        H  0.60937044  0.51588036  0.10702542     0.07300
C595        C  0.65990880  0.65944601  0.37222497    -0.22300
C596        C  0.63568754  0.62626998  0.36388318     0.09700
C597        C  0.63100422  0.61630400  0.33087246     0.10100
C598        C  0.64953623  0.64024551  0.30673194    -0.17200
C599        C  0.67219637  0.67405426  0.31476215    -0.27600
C600        C  0.67872929  0.68340136  0.34809062     0.18400
C601        C  0.61327171  0.60320642  0.38967581     0.12400
C602        C  0.60582397  0.58059782  0.32110763    -0.12000
H603        H  0.64530776  0.63271767  0.28139184     0.12700
C604        C  0.70582607  0.71789185  0.35918436    -0.22800
H605        H  0.66385458  0.66678024  0.39771286     0.08300
C606        C  0.62243188  0.58332285  0.40853954     0.04600
C607        C  0.59955752  0.56145249  0.43221115    -0.20000
C608        C  0.56770594  0.55907607  0.43747122    -0.12300
C609        C  0.55859236  0.57896038  0.41796894     0.13300
C610        C  0.58162887  0.60082013  0.39454423    -0.22800
C611        C  0.65618241  0.58508880  0.40347172    -0.05800
H612        H  0.60673685  0.54630636  0.44680915     0.14900
C613        C  0.52439077  0.57680553  0.42068013    -0.16000
H614        H  0.57483629  0.61604883  0.37956697     0.09200
H615        H  0.72337138  0.71522548  0.37607770     0.07100
H616        H  0.69385588  0.73067706  0.37225149     0.08300
H617        H  0.72155858  0.73417560  0.33886530     0.07300
H618        H  0.57987159  0.57419030  0.32912445     0.02200
H619        H  0.61269055  0.56289856  0.33266557     0.02700
H620        H  0.60539297  0.57703357  0.29425367     0.06200
H621        H  0.65933159  0.56772391  0.42009965     0.05200
H622        H  0.67711858  0.61117762  0.40818458    -0.00600
H623        H  0.65822412  0.57797035  0.37797162     0.00900
H624        H  0.52157773  0.58601391  0.44494794     0.04500
H625        H  0.50383348  0.55031515  0.41695008     0.06500
H626        H  0.52122484  0.59259982  0.40205179     0.07300
C627        C  0.33890662  0.34840588  0.37057741    -0.22300
C628        C  0.37138633  0.37349350  0.36069058     0.09700
C629        C  0.37945164  0.37881962  0.32719386     0.10100
C630        C  0.35433229  0.35968665  0.30417747    -0.17200
C631        C  0.32135973  0.33529153  0.31393374    -0.27600
C632        C  0.31383618  0.32888036  0.34766149     0.18400
C633        C  0.39595259  0.39508993  0.38585827     0.12400
C634        C  0.41432501  0.40521421  0.31581125    -0.12000
H635        H  0.36018741  0.36456666  0.27841679     0.12700
C636        C  0.28020128  0.30129609  0.36056083    -0.22800
H637        H  0.33305209  0.34415581  0.39639960     0.08300
C638        C  0.39539504  0.42356074  0.39830995     0.04600
C639        C  0.41856843  0.44310433  0.42257255    -0.20000
C640        C  0.44262631  0.43507680  0.43481410    -0.12300
C641        C  0.44355238  0.40670546  0.42152858     0.13300
C642        C  0.42000611  0.38703545  0.39736020    -0.22800
C643        C  0.37035149  0.43337869  0.38583617    -0.05800
H644        H  0.41769546  0.46483307  0.43203425     0.14900
C645        C  0.46899467  0.39671205  0.43234355    -0.16000
H646        H  0.42028433  0.36518674  0.38730514     0.09200
H647        H  0.26759941  0.31262237  0.37499865     0.07100
H648        H  0.28460974  0.28436673  0.37663960     0.08300
H649        H  0.26264892  0.28528099  0.34119283     0.07300
H650        H  0.43361127  0.39929140  0.32531332     0.02200
H651        H  0.42007671  0.43044232  0.32487029     0.02700
H652        H  0.41631710  0.40631671  0.28877057     0.06200
H653        H  0.37354997  0.45659077  0.39790017     0.05200
H654        H  0.34400272  0.41269224  0.39056419    -0.00600
H655        H  0.37403460  0.43820127  0.35918334     0.00900
H656        H  0.46584743  0.37408075  0.41908185     0.04500
H657        H  0.46564497  0.39054890  0.45875515     0.06500
H658        H  0.49520089  0.41760241  0.42741329     0.07300
C659        C  0.36327895  0.39399437  0.17486345    -0.22300
C660        C  0.37300972  0.37583161  0.15406313     0.09700
C661        C  0.35960595  0.34093303  0.15919135     0.10100
C662        C  0.33575141  0.32471533  0.18438550    -0.17200
C663        C  0.32503086  0.34267179  0.20442580    -0.27600
C664        C  0.33973375  0.37797328  0.20021400     0.18400
C665        C  0.39615812  0.39383627  0.12630203     0.12400
C666        C  0.36999364  0.32080095  0.13766919    -0.12000
H667        H  0.32479149  0.29776845  0.18797830     0.12700
C668        C  0.33192558  0.39970318  0.22237359    -0.22800
H669        H  0.37406856  0.42092290  0.17116473     0.08300
C670        C  0.38370508  0.40039989  0.09743622     0.04600
C671        C  0.40661546  0.41985478  0.07269435    -0.20000
C672        C  0.44169388  0.43242867  0.07586475    -0.12300
C673        C  0.45408994  0.42510273  0.10449341     0.13300
C674        C  0.43111556  0.40592946  0.12943391    -0.22800
C675        C  0.34618935  0.38685033  0.09281456    -0.05800
H676        H  0.39710907  0.42538378  0.05075115     0.14900
C677        C  0.49157466  0.43887316  0.10959211    -0.16000
H678        H  0.44046883  0.40089707  0.15175544     0.09200
H679        H  0.31999681  0.41159164  0.20805934     0.07100
H680        H  0.31479017  0.38558366  0.24292472     0.08300
H681        H  0.35592920  0.41987531  0.23314541     0.07300
H682        H  0.39781794  0.33095812  0.13958409     0.02200
H683        H  0.36352839  0.32245068  0.11192178     0.02700
H684        H  0.35688369  0.29375222  0.14476538     0.06200
H685        H  0.34066212  0.39386290  0.06864521     0.05200
H686        H  0.33642277  0.39714484  0.11194018    -0.00600
H687        H  0.33243691  0.35887611  0.09452169     0.00900
H688        H  0.49687081  0.43189238  0.13388484     0.04500
H689        H  0.50517230  0.46684982  0.10799085     0.06500
H690        H  0.50168783  0.42860121  0.09079041     0.07300
O691        O  0.46242857  0.48084577  0.97288361    -0.71600
O692        O  0.51928458  0.53652834  0.54091383    -0.71800
O693        O  0.52123642  0.53932150  0.97548912    -0.71700
O694        O  0.46020831  0.47795861  0.53831547    -0.71700
O695        O  0.48911015  0.45179349  0.53895105    -0.71700
O696        O  0.54797025  0.51115828  0.97302791    -0.71700
O697        O  0.54807995  0.51042251  0.53870848    -0.71600
O698        O  0.48880895  0.45233751  0.97299969    -0.71800
V699        V  0.49133910  0.50813275  0.00688269     1.35200
V700        V  0.51794878  0.48190394  0.50591945     1.35200
C701        C  0.46568253  0.45688592  0.96129988     0.77600
C702        C  0.54355464  0.53312287  0.55146406     0.77700
C703        C  0.54464851  0.53553075  0.96300824     0.77600
C704        C  0.46466182  0.45488349  0.54993140     0.77500
O705        O  0.96065693  0.46713368  0.96867481    -0.71600
O706        O  0.95430649  0.52235518  0.53466499    -0.71800
O707        O  0.95571911  0.52330172  0.96887852    -0.71700
O708        O  0.95965526  0.46663642  0.53432825    -0.71700
O709        O  0.01454863  0.49700629  0.53452879    -0.71700
O710        O  0.01056336  0.55430429  0.97005052    -0.71700
O711        O  0.00937305  0.55293949  0.53571579    -0.71600
O712        O  0.01570742  0.49847839  0.96857757    -0.71800
V713        V  0.95865111  0.49547663  0.50160993     1.35200
V714        V  0.01149089  0.52508028  0.50220734     1.35200
C715        C  0.98918938  0.47355496  0.95721920     0.77600
C716        C  0.98074596  0.54644855  0.54705779     0.77700
C717        C  0.98252254  0.54846751  0.95808125     0.77600
C718        C  0.98774542  0.47226554  0.54596928     0.77500
O719        O  0.46608225  0.02377049  0.95771850    -0.71600
O720        O  0.52831501  0.02443807  0.51944368    -0.71800
O721        O  0.52412425  0.02170713  0.95422807    -0.71700
O722        O  0.46998201  0.02627143  0.52327832    -0.71700
O723        O  0.44119874  0.97162582  0.52519153    -0.71700
O724        O  0.49539940  0.96705911  0.95670977    -0.71700
O725        O  0.49932143  0.96976816  0.52188841    -0.71600
O726        O  0.43737078  0.96915012  0.95962208    -0.71800
V727        V  0.49651913  0.02301142  0.48873462     1.35200
V728        V  0.46883927  0.97047206  0.49079781     1.35200
C729        C  0.44125342  0.99635776  0.94776231     0.77600
C730        C  0.52467035  0.99723101  0.53099778     0.77700
C731        C  0.51935736  0.99347033  0.94410613     0.77600
C732        C  0.44629237  0.99969248  0.53609495     0.77500
C733        C  0.02568313  0.75876015  0.74840143     0.86700
C734        C  0.02373617  0.73967686  0.77995186    -0.53600
C735        C  0.99476692  0.70902283  0.78323341     0.09600
C736        C  0.97033581  0.69972469  0.75433079     0.20500
C737        C  0.02054306  0.73322613  0.72100579    -0.54300
C738        C  0.99206311  0.70247688  0.72458968     0.09700
C739        C  0.99232775  0.75999243  0.74740347    -0.53800
C740        C  0.96344829  0.72928514  0.75117724     0.10300
H741        H  0.04428336  0.74911173  0.79752475     0.14800
H742        H  0.94708657  0.67457168  0.75628306     0.00500
H743        H  0.03700275  0.73783485  0.70016985     0.15100
H744        H  0.99165132  0.78324140  0.74432104     0.14900
C745        C  0.95412159  0.26512526  0.74880685     0.86700
C746        C  0.95442705  0.28769206  0.77705106    -0.53600
C747        C  0.98301625  0.31890432  0.77837803     0.09600
C748        C  0.00935362  0.32458193  0.75168115     0.20500
C749        C  0.96047219  0.28772667  0.71846959    -0.54300
C750        C  0.98939411  0.31850151  0.71994195     0.09700
C751        C  0.98701153  0.26373042  0.75221732    -0.53800
C752        C  0.01571745  0.29448278  0.75405258     0.10300
H753        H  0.93324296  0.28003118  0.79388832     0.14800
H754        H  0.03279457  0.34970532  0.75276951     0.00500
H755        H  0.94302736  0.28209235  0.69847240     0.15100
H756        H  0.98756003  0.24023422  0.75290968     0.14900
C757        C  0.24357168  0.30201156  0.75751970     0.86700
C758        C  0.26497830  0.31759193  0.78825098    -0.53600
C759        C  0.29546826  0.31838474  0.78812123     0.09600
C760        C  0.30215308  0.30378228  0.75693014     0.20500
C761        C  0.26739968  0.32249668  0.72899347    -0.54300
C762        C  0.29810550  0.32376092  0.72908155     0.09700
C763        C  0.24092599  0.26714701  0.75337417    -0.53800
C764        C  0.27146974  0.26793639  0.75406098     0.10300
H765        H  0.25710128  0.32819674  0.80795669     0.14800
H766        H  0.32713936  0.30489025  0.75624344     0.00500
H767        H  0.26078497  0.33442613  0.70979921     0.15100
H768        H  0.21703250  0.24380691  0.75024501     0.14900
C769        C  0.27922121  0.04914495  0.74086627     0.86700
C770        C  0.29561095  0.04483380  0.77174269    -0.53600
C771        C  0.29645898  0.01543721  0.77308508     0.09600
C772        C  0.28108361  0.99276582  0.74294905     0.20500
C773        C  0.29948904  0.04473799  0.71259405    -0.54300
C774        C  0.30056454  0.01548308  0.71395027     0.09700
C775        C  0.24407520  0.01686349  0.73836025    -0.53800
C776        C  0.24476352  0.98730050  0.74055033     0.10300
H777        H  0.30669568  0.06412870  0.79053336     0.14800
H778        H  0.28241527  0.96919366  0.74322071     0.00500
H779        H  0.31158955  0.06221547  0.69261675     0.15100
H780        H  0.22052722  0.01739410  0.73603171     0.14900
C781        C  0.73361928  0.03585166  0.74000536     0.86700
C782        C  0.71351187  0.03431245  0.70952608    -0.53600
C783        C  0.68244506  0.00603305  0.70723351     0.09600
C784        C  0.67444552  0.98048247  0.73535263     0.20500
C785        C  0.70939856  0.02943908  0.76888773    -0.54300
C786        C  0.67820199  0.00068020  0.76689108     0.09700
C787        C  0.73550864  0.00299247  0.73785926    -0.53800
C788        C  0.70472531  0.97393511  0.73583746     0.10300
H789        H  0.72255009  0.05462442  0.69178712     0.14800
H790        H  0.64994735  0.95693705  0.73318466     0.00500
H791        H  0.71646507  0.04718912  0.78900234     0.15100
H792        H  0.75860413  0.00162991  0.73812004     0.14900
C793        C  0.70119000  0.74945519  0.75540430     0.86700
C794        C  0.68215809  0.72495316  0.72751829    -0.53600
C795        C  0.68330956  0.69578798  0.72831367     0.09600
C796        C  0.70316240  0.69311631  0.75730543     0.20500
C797        C  0.68550907  0.72811059  0.78673506    -0.54300
C798        C  0.68677327  0.69883484  0.78764955     0.09700
C799        C  0.73734734  0.75429165  0.75445927    -0.53800
C800        C  0.73859510  0.72494977  0.75572996     0.10300
H801        H  0.66867829  0.73019051  0.70869738     0.14800
H802        H  0.70356063  0.66903164  0.75800980     0.00500
H803        H  0.67474841  0.73490399  0.80700630     0.15100
H804        H  0.76000641  0.77896743  0.75271170     0.14900
C805        C  0.71851637  0.83744545  0.72619777    -0.22300
C806        C  0.69978042  0.84469371  0.74870630     0.09700
C807        C  0.67947951  0.82025973  0.77195291     0.10100
C808        C  0.68016262  0.78990331  0.77360541    -0.17200
C809        C  0.70030204  0.78269043  0.75210438    -0.27600
C810        C  0.71819909  0.80654302  0.72669639     0.18400
C811        C  0.70047077  0.87741469  0.74627801     0.12400
C812        C  0.65630517  0.82586490  0.79445645    -0.12000
H813        H  0.66356538  0.77162142  0.79121701     0.12700
C814        C  0.73678620  0.80079187  0.69890167    -0.22800
H815        H  0.73297125  0.85587839  0.70747307     0.08300
C816        C  0.72241602  0.90538583  0.76554487     0.04600
C817        C  0.72233855  0.93590364  0.76200450    -0.20000
C818        C  0.70186783  0.93981456  0.73863694    -0.12300
C819        C  0.68040583  0.91157443  0.71882251     0.13300
C820        C  0.67961761  0.88073672  0.72339063    -0.22800
C821        C  0.74652071  0.90326735  0.78925089    -0.05800
H822        H  0.73869521  0.95700878  0.77753694     0.14900
C823        C  0.65925942  0.91283222  0.69145681    -0.16000
H824        H  0.66321812  0.85922714  0.70825984     0.09200
H825        H  0.76429846  0.81968506  0.70020411     0.07100
H826        H  0.72674811  0.80399147  0.67536036     0.08300
H827        H  0.73400310  0.77543739  0.69824675     0.07300
H828        H  0.63789871  0.82953945  0.77982771     0.02200
H829        H  0.67134186  0.84857323  0.80974736     0.02700
H830        H  0.64165532  0.80405314  0.81098859     0.06200
H831        H  0.76233341  0.92761461  0.80208328     0.05200
H832        H  0.76382724  0.89668438  0.77593217    -0.00600
H833        H  0.73212102  0.88363636  0.80788630     0.00900
H834        H  0.66632562  0.90509365  0.66830859     0.04500
H835        H  0.66316258  0.93818660  0.68765515     0.06500
H836        H  0.63191136  0.89536377  0.69664530     0.07300
C837        C  0.29299078  0.19863328  0.77139454    -0.22300
C838        C  0.27685491  0.17654361  0.74533188     0.09700
C839        C  0.25868217  0.18424303  0.72241703     0.10100
C840        C  0.25795209  0.21451231  0.72553467    -0.17200
C841        C  0.27435295  0.23693319  0.75146236    -0.27600
C842        C  0.29163944  0.22853789  0.77504884     0.18400
C843        C  0.27784357  0.14460042  0.74360479     0.12400
C844        C  0.23930319  0.16006221  0.69524994    -0.12000
H845        H  0.24423137  0.22060117  0.70778572     0.12700
C846        C  0.30680087  0.24958962  0.80523021    -0.22800
H847        H  0.30615423  0.19202780  0.78931752     0.08300
C848        C  0.30209497  0.14163040  0.72452576     0.04600
C849        C  0.30184371  0.11075332  0.72376303    -0.20000
C850        C  0.27821420  0.08243053  0.74216220    -0.12300
C851        C  0.25590437  0.08706709  0.76367683     0.13300
C852        C  0.25524836  0.11747225  0.76299683    -0.22800
C853        C  0.32895059  0.17143486  0.70573274    -0.05800
H854        H  0.32152640  0.10989432  0.70968521     0.14900
C855        C  0.23299004  0.06159407  0.78876311    -0.16000
H856        H  0.23759033  0.12049688  0.77868135     0.09200
H857        H  0.32846237  0.27465844  0.79882941     0.07100
H858        H  0.31658575  0.23757002  0.82220492     0.08300
H859        H  0.28704407  0.25255104  0.81843795     0.07300
H860        H  0.21994018  0.13546946  0.70570373     0.02200
H861        H  0.25689530  0.15602408  0.67943845     0.02700
H862        H  0.22600739  0.16970366  0.67976880     0.06200
H863        H  0.34642188  0.16509727  0.69236947     0.05200
H864        H  0.34434164  0.19244367  0.72282866    -0.00600
H865        H  0.31690237  0.18012008  0.68766167     0.00900
H866        H  0.23788042  0.07394375  0.81307080     0.04500
H867        H  0.23691491  0.03983476  0.79173544     0.06500
H868        H  0.20601167  0.05218785  0.78228165     0.07300
C869        C  0.09905883  0.30478153  0.78579360    -0.22300
C870        C  0.11328371  0.30017368  0.75708314     0.09700
C871        C  0.09478505  0.29259508  0.72768671     0.10100
C872        C  0.06368955  0.29236002  0.72723903    -0.17200
C873        C  0.04979169  0.29765619  0.75584151    -0.27600
C874        C  0.06706116  0.30260023  0.78571093     0.18400
C875        C  0.14684870  0.30190765  0.75864499     0.12400
C876        C  0.10680015  0.28281870  0.69731441    -0.12000
H877        H  0.04957360  0.28694106  0.70468156     0.12700
C878        C  0.05187453  0.30403741  0.81805107    -0.22800
H879        H  0.11264897  0.30925928  0.80858154     0.08300
C880        C  0.17660272  0.32977575  0.74626297     0.04600
C881        C  0.20722564  0.32909851  0.74624815    -0.20000
C882        C  0.20947918  0.30176669  0.75952327    -0.12300
C883        C  0.18052731  0.27679287  0.77696614     0.13300
C884        C  0.14930531  0.27614702  0.77450140    -0.22800
C885        C  0.17648023  0.36100904  0.73465426    -0.05800
H886        H  0.22973477  0.35091209  0.73686966     0.14900
C887        C  0.18141332  0.25160034  0.80004322    -0.16000
H888        H  0.12686651  0.25601098  0.78620786     0.09200
H889        H  0.06847840  0.32875114  0.82992485     0.07100
H890        H  0.05001467  0.28365941  0.83410031     0.08300
H891        H  0.02595825  0.30042292  0.81582867     0.07300
H892        H  0.10907932  0.26017942  0.70240250     0.02200
H893        H  0.13188002  0.30358179  0.68923967     0.02700
H894        H  0.08873008  0.27664849  0.67683749     0.06200
H895        H  0.20214359  0.38089510  0.72658219     0.05200
H896        H  0.16816010  0.37148415  0.75490836    -0.00600
H897        H  0.15891459  0.35510675  0.71389066     0.00900
H898        H  0.16988999  0.25245459  0.82377806     0.04500
H899        H  0.20739605  0.25698428  0.80580512     0.06500
H900        H  0.16646830  0.22575166  0.78979484     0.07300
C901        C  0.88108362  0.17701441  0.77574693    -0.22300
C902        C  0.86167979  0.16538840  0.74734537     0.09700
C903        C  0.87310023  0.18512375  0.71887094     0.10100
C904        C  0.90306398  0.21657062  0.71972889    -0.17200
C905        C  0.92229775  0.22956253  0.74856642    -0.27600
C906        C  0.91159072  0.20814145  0.77663130     0.18400
C907        C  0.82964874  0.13228044  0.74759846     0.12400
C908        C  0.85400527  0.17267794  0.68720021    -0.12000
H909        H  0.91138340  0.23005711  0.69704898     0.12700
C910        C  0.93135833  0.21623168  0.80806680    -0.22800
H911        H  0.87250130  0.16139239  0.79745539     0.08300
C912        C  0.82965993  0.10151274  0.74854124     0.04600
C913        C  0.79869828  0.07097269  0.74667103    -0.20000
C914        C  0.76712212  0.06990874  0.74345081    -0.12300
C915        C  0.76762382  0.10151431  0.74389734     0.13300
C916        C  0.79872732  0.13184233  0.74578796    -0.22800
C917        C  0.86248953  0.10085972  0.75076269    -0.05800
H918        H  0.80012339  0.04821438  0.74795805     0.14900
C919        C  0.73645946  0.10534898  0.74241595    -0.16000
H920        H  0.79890519  0.15568980  0.74561440     0.09200
H921        H  0.93672046  0.19558049  0.81367745     0.07100
H922        H  0.91592468  0.21804504  0.82828000     0.08300
H923        H  0.95610208  0.23980618  0.80762482     0.07300
H924        H  0.82817525  0.16939460  0.68979080     0.02200
H925        H  0.85186880  0.14813602  0.68043594     0.02700
H926        H  0.86701554  0.19066032  0.66687157     0.06200
H927        H  0.85816423  0.07469826  0.75024719     0.05200
H928        H  0.87560595  0.11274116  0.77390693    -0.00600
H929        H  0.87927278  0.11483003  0.72985714     0.00900
H930        H  0.73589346  0.11979027  0.76404576     0.04500
H931        H  0.71217866  0.08149582  0.74226779     0.06500
H932        H  0.73760450  0.11952974  0.72005523     0.07300
C933        C  0.09374777  0.85246179  0.76519754    -0.22300
C934        C  0.11890542  0.85811346  0.74213561     0.09700
C935        C  0.11485735  0.83122803  0.72224030     0.10100
C936        C  0.08484391  0.79983539  0.72451105    -0.17200
C937        C  0.05837377  0.79381688  0.74679309    -0.27600
C938        C  0.06416079  0.82071751  0.76854298     0.18400
C939        C  0.15075530  0.89142631  0.74136529     0.12400
C940        C  0.14296484  0.83518996  0.69955445    -0.12000
H941        H  0.08359795  0.77993109  0.70949060     0.12700
C942        C  0.04076501  0.81744609  0.79642816    -0.22800
H943        H  0.09771620  0.87288239  0.78146687     0.08300
C944        C  0.15671365  0.91613141  0.71767809     0.04600
C945        C  0.18793247  0.94663563  0.71747039    -0.20000
C946        C  0.21302609  0.95354035  0.74100738    -0.12300
C947        C  0.20615661  0.92920832  0.76568090     0.13300
C948        C  0.17537076  0.89834947  0.76515596    -0.22800
C949        C  0.12971507  0.91080223  0.69337459    -0.05800
H950        H  0.19264474  0.96541184  0.69901836     0.14900
C951        C  0.22978681  0.93609162  0.79395016    -0.16000
H952        H  0.17019553  0.87951908  0.78370643     0.09200
H953        H  0.03094195  0.83507865  0.79258769     0.07100
H954        H  0.05524009  0.82422313  0.81961155     0.08300
H955        H  0.01884448  0.79190810  0.79982615     0.07300
H956        H  0.16625770  0.84216275  0.71383590     0.02200
H957        H  0.14871318  0.85519047  0.68131374     0.02700
H958        H  0.13606647  0.81149805  0.68609868     0.06200
H959        H  0.13825328  0.93291960  0.67700367     0.05200
H960        H  0.10654643  0.90686302  0.70654002    -0.00600
H961        H  0.12310855  0.88837623  0.67799738     0.00900
H962        H  0.21855363  0.91559633  0.81240141     0.04500
H963        H  0.23486543  0.95976451  0.80626143     0.06500
H964        H  0.25387587  0.93789621  0.78564913     0.07300
C965        C  0.87382419  0.70843217  0.77608903    -0.22300
C966        C  0.86497969  0.72196473  0.74981483     0.09700
C967        C  0.88815198  0.73725167  0.72378356     0.10100
C968        C  0.91970802  0.73851271  0.72458632    -0.17200
C969        C  0.92880415  0.72519561  0.75097688    -0.27600
C970        C  0.90549557  0.70991501  0.77711668     0.18400
C971        C  0.83230141  0.72193878  0.75132870     0.12400
C972        C  0.88001912  0.75313232  0.69568188    -0.12000
H973        H  0.93762089  0.75035507  0.70468111     0.12700
C974        C  0.91436266  0.69683732  0.80699627    -0.22800
H975        H  0.85603352  0.69724668  0.79619780     0.08300
C976        C  0.80264274  0.69660350  0.73624520     0.04600
C977        C  0.77255157  0.69824232  0.73816594    -0.20000
C978        C  0.77095725  0.72379230  0.75608036    -0.12300
C979        C  0.80018627  0.74734358  0.77367444     0.13300
C980        C  0.83071825  0.74689836  0.76988459    -0.22800
C981        C  0.80256801  0.66746614  0.71881692    -0.05800
H982        H  0.75021953  0.67938294  0.72554041     0.14900
C983        C  0.79993093  0.77167043  0.79852406    -0.16000
H984        H  0.85325230  0.76540051  0.78266011     0.09200
H985        H  0.91741752  0.67490936  0.80070813     0.07100
H986        H  0.89414068  0.68827798  0.82595851     0.08300
H987        H  0.93820420  0.71715868  0.81778364     0.07300
H988        H  0.87558208  0.77350894  0.70488802     0.02200
H989        H  0.85688461  0.73392920  0.68296276     0.02700
H990        H  0.90111415  0.76431425  0.67757499     0.06200
H991        H  0.77711039  0.64955318  0.70881601     0.05200
H992        H  0.80970717  0.65343991  0.73612568    -0.00600
H993        H  0.82104372  0.67678860  0.69829680     0.00900
H994        H  0.81116445  0.76931091  0.82166761     0.04500
H995        H  0.77408828  0.76656549  0.80493054     0.06500
H996        H  0.81536529  0.79793283  0.78941048     0.07300
C997        C  0.60518577  0.02040258  0.57896866    -0.22300
C998        C  0.59221432  0.99548247  0.60315978     0.09700
C999        C  0.55743671  0.97088536  0.60322747     0.10100
C1000       C  0.53626285  0.97177349  0.57895505    -0.17200
C1001       C  0.54887591  0.99725417  0.55511578    -0.27600
C1002       C  0.58396041  0.02182321  0.55501317     0.18400
C1003       C  0.61508260  0.99725359  0.62957926     0.12400
C1004       C  0.54262040  0.94407320  0.62922402    -0.12000
H1005       H  0.50947180  0.95297035  0.57915864     0.12700
C1006       C  0.59943910  0.04929940  0.52963792    -0.22800
H1007       H  0.63196888  0.03923972  0.57930650     0.08300
C1008       C  0.63558958  0.98222669  0.62662917     0.04600
C1009       C  0.65738890  0.98552373  0.65230648    -0.20000
C1010       C  0.65834880  0.00262804  0.68118823    -0.12300
C1011       C  0.63894599  0.01914296  0.68324300     0.13300
C1012       C  0.61730886  0.01586279  0.65755701    -0.22800
C1013       C  0.63473976  0.96315682  0.59626655    -0.05800
H1014       H  0.67446556  0.97559676  0.64929580     0.14900
C1015       C  0.64077770  0.04099736  0.71170599    -0.16000
H1016       H  0.60218001  0.02818149  0.65923126     0.09200
H1017       H  0.62745539  0.06489381  0.53232550     0.07100
H1018       H  0.58884136  0.06645914  0.53214412     0.08300
H1019       H  0.59414832  0.03796463  0.50484806     0.07300
H1020       H  0.54631909  0.95606822  0.65359880     0.02200
H1021       H  0.55544026  0.92878180  0.62857771     0.02700
H1022       H  0.51494353  0.92681263  0.62572318     0.06200
H1023       H  0.65236446  0.95295631  0.59793314     0.05200
H1024       H  0.64230927  0.98019069  0.57480981    -0.00600
H1025       H  0.60864907  0.94165463  0.59251020     0.00900
H1026       H  0.65131267  0.06745791  0.70335304     0.04500
H1027       H  0.65671106  0.04066734  0.73179017     0.06500
H1028       H  0.61487247  0.03196404  0.72178196     0.07300
C1029       C  0.57033864  0.96460168  0.89220569    -0.22300
C1030       C  0.58563837  0.99102477  0.86971364     0.09700
C1031       C  0.57909204  0.01809072  0.87143052     0.10100
C1032       C  0.55713332  0.01806072  0.89574319    -0.17200
C1033       C  0.54152447  0.99152462  0.91838521    -0.27600
C1034       C  0.54845077  0.96447614  0.91663991     0.18400
C1035       C  0.60851589  0.98988783  0.84446957     0.12400
C1036       C  0.59567573  0.04717184  0.84785157    -0.12000
H1037       H  0.55209459  0.03886567  0.89701691     0.12700
C1038       C  0.53399330  0.93594297  0.94097151    -0.22800
H1039       H  0.57578153  0.94407039  0.89068368     0.08300
C1040       C  0.64271998  0.00040547  0.85110869     0.04600
C1041       C  0.66390583  0.00107093  0.82571628    -0.20000
C1042       C  0.65193877  0.99168339  0.79350439    -0.12300
C1043       C  0.61642824  0.97779964  0.78795543     0.13300
C1044       C  0.59556888  0.97798646  0.81339003    -0.22800
C1045       C  0.65704677  0.01176696  0.88480762    -0.05800
H1046       H  0.69034837  0.00977824  0.83105187     0.14900
C1047       C  0.59929330  0.96190521  0.75626327    -0.16000
H1048       H  0.56877280  0.96864117  0.80913637     0.09200
H1049       H  0.54395837  0.91839018  0.93697202     0.07100
H1050       H  0.50593268  0.92099137  0.93864691     0.08300
H1051       H  0.54093932  0.94620178  0.96610804     0.07300
H1052       H  0.58817202  0.03785991  0.82251482     0.02200
H1053       H  0.62375007  0.05953617  0.84996506     0.02700
H1054       H  0.58809704  0.06644780  0.85274959     0.06200
H1055       H  0.68448007  0.01968455  0.88576323     0.05200
H1056       H  0.64330610  0.99075805  0.90238477    -0.00600
H1057       H  0.65411375  0.03353411  0.89241856     0.00900
H1058       H  0.59879818  0.93757947  0.75290950     0.04500
H1059       H  0.61227660  0.97884580  0.73563441     0.06500
H1060       H  0.57242941  0.95609280  0.75587589     0.07300
C1061       C  0.36573508  0.97094607  0.89074229    -0.22300
C1062       C  0.37745942  0.00050564  0.87242398     0.09700
C1063       C  0.40941958  0.02872537  0.87931018     0.10100
C1064       C  0.42946647  0.02639104  0.90389170    -0.17200
C1065       C  0.41819259  0.99665325  0.92223569    -0.27600
C1066       C  0.38558187  0.96855298  0.91562652     0.18400
C1067       C  0.35528698  0.00182281  0.84689918     0.12400
C1068       C  0.42203820  0.06155833  0.86124022    -0.12000
H1069       H  0.45420704  0.04809492  0.90874552     0.12700
C1070       C  0.37098281  0.93619609  0.93485904    -0.22800
H1071       H  0.34083060  0.94965668  0.88550382     0.08300
C1072       C  0.35930655  0.99615552  0.81373339     0.04600
C1073       C  0.33883147  0.99962979  0.79034123    -0.20000
C1074       C  0.31421851  0.00824843  0.79942455    -0.12300
C1075       C  0.30886920  0.01183815  0.83299907     0.13300
C1076       C  0.32984920  0.00902736  0.85621417    -0.22800
C1077       C  0.38504914  0.98632180  0.80308020    -0.05800
H1078       H  0.34270930  0.99647141  0.76474461     0.14900
C1079       C  0.28088941  0.01768350  0.84549919    -0.16000
H1080       H  0.32633225  0.01245958  0.88186940     0.09200
H1081       H  0.34462669  0.91784240  0.92724738     0.07100
H1082       H  0.37021772  0.94155018  0.96120932     0.08300
H1083       H  0.38659305  0.92397475  0.93093318     0.07300
H1084       H  0.40403352  0.07108019  0.86501179     0.02200
H1085       H  0.42412229  0.05783650  0.83476073     0.02700
H1086       H  0.44745714  0.08121515  0.86991356     0.06200
H1087       H  0.38468552  0.98264188  0.77624845     0.05200
H1088       H  0.37931956  0.96229210  0.81505517    -0.00600
H1089       H  0.41103330  0.00619718  0.80993642     0.00900
H1090       H  0.26492536  0.99758317  0.86326453     0.04500
H1091       H  0.26373495  0.01694132  0.82611147     0.06500
H1092       H  0.29212560  0.04254197  0.85796289     0.07300
C1093       C  0.39889747  0.02753566  0.59475611    -0.22300
C1094       C  0.38297883  0.99952549  0.61551473     0.09700
C1095       C  0.38777521  0.97169255  0.61017321     0.10100
C1096       C  0.40869469  0.97265940  0.58425205    -0.17200
C1097       C  0.42502257  0.00084369  0.56341414    -0.27600
C1098       C  0.41988455  0.02868419  0.56883170     0.18400
C1099       C  0.36170978  0.00043638  0.64278544     0.12400
C1100       C  0.37107936  0.94116232  0.63199294    -0.12000
H1101       H  0.41246374  0.95126358  0.58040290     0.12700
C1102       C  0.43553001  0.05935796  0.54709441    -0.22800
H1103       H  0.39483756  0.04870904  0.59898592     0.08300
C1104       C  0.37668119  0.02005015  0.67097254     0.04600
C1105       C  0.35597248  0.02370695  0.69435875    -0.20000
C1106       C  0.32065714  0.00783919  0.69034336    -0.12300
C1107       C  0.30547579  0.98694755  0.66299299     0.13300
C1108       C  0.32622165  0.98354637  0.63937038    -0.22800
C1109       C  0.41450634  0.03721092  0.67624179    -0.05800
H1110       H  0.36740050  0.03952845  0.71557865     0.14900
C1111       C  0.26754987  0.96911878  0.65837800    -0.16000
H1112       H  0.31486296  0.96844479  0.61773659     0.09200
H1113       H  0.46364235  0.07261854  0.54904740     0.07100
H1114       H  0.42722395  0.07766714  0.55405707     0.08300
H1115       H  0.42782609  0.05168647  0.52141022     0.07300
H1116       H  0.34302440  0.92948462  0.63062475     0.02200
H1117       H  0.37928355  0.94873958  0.65758522     0.02700
H1118       H  0.37789468  0.92181372  0.62476146     0.06200
H1119       H  0.42193634  0.05100187  0.69983789     0.05200
H1120       H  0.42807869  0.05565351  0.65641681    -0.00600
H1121       H  0.42275029  0.01804730  0.67638092     0.00900
H1122       H  0.25979192  0.95404823  0.63551964     0.04500
H1123       H  0.25883890  0.98789575  0.65723362     0.06500
H1124       H  0.25472986  0.95174490  0.67915686     0.07300
C1125       C  0.95687309  0.57186210  0.62729622    -0.22300
C1126       C  0.97598232  0.60706373  0.62513947     0.09700
C1127       C  0.99652755  0.62228291  0.59740326     0.10100
C1128       C  0.99738685  0.60181480  0.57221705    -0.17200
C1129       C  0.97836367  0.56647989  0.57428571    -0.27600
C1130       C  0.95818145  0.55127473  0.60247744     0.18400
C1131       C  0.97649187  0.62769547  0.65325426     0.12400
C1132       C  0.01771559  0.66013200  0.59457979    -0.12000
H1133       H  0.01300574  0.61343320  0.55079946     0.12700
C1134       C  0.93932190  0.51369269  0.60834701    -0.22800
H1135       H  0.94178419  0.56038159  0.64904654     0.08300
C1136       C  0.95263350  0.63877125  0.65671517     0.04600
C1137       C  0.95709348  0.66189492  0.68157428    -0.20000
C1138       C  0.98485750  0.67391364  0.70277834    -0.12300
C1139       C  0.00712680  0.66066712  0.70083570     0.13300
C1140       C  0.00278878  0.63791253  0.67587182    -0.22800
C1141       C  0.92320126  0.62691933  0.63362884    -0.05800
H1142       H  0.93980790  0.67175166  0.68357180     0.14900
C1143       C  0.03572531  0.66998305  0.72456880    -0.16000
H1144       H  0.02056630  0.62866275  0.67352329     0.09200
H1145       H  0.91160349  0.50438893  0.60982370     0.07100
H1146       H  0.94771394  0.50823145  0.63180419     0.08300
H1147       H  0.94393098  0.49922699  0.58930910     0.07300
H1148       H  0.03632721  0.67031232  0.61481540     0.02200
H1149       H  0.00101933  0.67143747  0.59583706     0.02700
H1150       H  0.03207311  0.66791679  0.57118724     0.06200
H1151       H  0.90699280  0.63809669  0.63967648     0.05200
H1152       H  0.90718834  0.59902167  0.63502913    -0.00600
H1153       H  0.93279412  0.63423962  0.60828017     0.00900
H1154       H  0.03259369  0.64671862  0.73628030     0.04500
H1155       H  0.03651277  0.68692447  0.74435686     0.06500
H1156       H  0.06041509  0.68265837  0.71132688     0.07300
C1157       C  0.95343746  0.59148635  0.89623044    -0.22300
C1158       C  0.98458053  0.61466772  0.88208495     0.09700
C1159       C  0.01464003  0.61574811  0.89233866     0.10100
C1160       C  0.01296974  0.59389851  0.91709083    -0.17200
C1161       C  0.98183079  0.57057750  0.93177302    -0.27600
C1162       C  0.95150413  0.56921932  0.92080072     0.18400
C1163       C  0.98528175  0.63799495  0.85679976     0.12400
C1164       C  0.04843982  0.63980998  0.87692357    -0.12000
H1165       H  0.03629543  0.59501091  0.92482203     0.12700
C1166       C  0.91701369  0.54486429  0.93476223    -0.22800
H1167       H  0.93051358  0.59090756  0.88793665     0.08300
C1168       C  0.97866447  0.62821693  0.82381508     0.04600
C1169       C  0.98103399  0.65175193  0.80059602    -0.20000
C1170       C  0.98970565  0.68478786  0.80964098    -0.12300
C1171       C  0.99469603  0.69396237  0.84306340     0.13300
C1172       C  0.99297433  0.67055884  0.86611167    -0.22800
C1173       C  0.96974579  0.59318462  0.81311429    -0.05800
H1174       H  0.97697603  0.64452873  0.77510065     0.14900
C1175       C  0.00062817  0.72752132  0.85559648    -0.16000
H1176       H  0.99736053  0.67764328  0.89165484     0.09200
H1177       H  0.91091679  0.51851495  0.92991849     0.07100
H1178       H  0.89657792  0.54810308  0.92360807     0.08300
H1179       H  0.91665237  0.54909007  0.96141922     0.07300
H1180       H  0.05425511  0.66622137  0.88074939     0.02200
H1181       H  0.04757064  0.63469706  0.85033630     0.02700
H1182       H  0.06945417  0.63718400  0.88754967     0.06200
H1183       H  0.96561896  0.58978674  0.78636225     0.05200
H1184       H  0.94603631  0.57429440  0.82554612    -0.00600
H1185       H  0.99067906  0.58834189  0.81946901     0.00900
H1186       H  0.98129016  0.72325927  0.87456238     0.04500
H1187       H  0.99838149  0.74327587  0.83648048     0.06500
H1188       H  0.02629358  0.74169524  0.86660758     0.07300
C1189       C  0.96373913  0.37710772  0.83007587    -0.22300
C1190       C  0.99223046  0.39210117  0.85036827     0.09700
C1191       C  0.01913406  0.38553715  0.84492976     0.10100
C1192       C  0.01606003  0.36258270  0.82038318    -0.17200
C1193       C  0.98658873  0.34585908  0.80134250    -0.27600
C1194       C  0.96095435  0.35480236  0.80505582     0.18400
C1195       C  0.99279464  0.41378267  0.87771942     0.12400
C1196       C  0.05089381  0.40256550  0.86522053    -0.12000
H1197       H  0.03649105  0.35724542  0.81650810     0.12700
C1198       C  0.93114652  0.34272939  0.78228375    -0.22800
H1199       H  0.94363797  0.38311578  0.83361310     0.08300
C1200       C  0.00384787  0.44837186  0.87337089     0.04600
C1201       C  0.00337714  0.46754793  0.90009604    -0.20000
C1202       C  0.99129483  0.45265719  0.93078165    -0.12300
C1203       C  0.98008429  0.41795180  0.93506078     0.13300
C1204       C  0.98111003  0.39901097  0.90846077    -0.22800
C1205       C  0.01568369  0.46483741  0.84048432    -0.05800
H1206       H  0.01162352  0.49407806  0.89685005     0.14900
C1207       C  0.96745155  0.40020804  0.96736464    -0.16000
H1208       H  0.97256405  0.37240379  0.91167395     0.09200
H1209       H  0.93039050  0.36487937  0.77223054     0.07100
H1210       H  0.90715462  0.32667077  0.79586647     0.08300
H1211       H  0.93262676  0.32843354  0.76107626     0.07300
H1212       H  0.04439322  0.39591577  0.89131305     0.02200
H1213       H  0.06315512  0.43036893  0.86240147     0.02700
H1214       H  0.06954352  0.39475445  0.85774069     0.06200
H1215       H  0.02339961  0.49203337  0.84128067     0.05200
H1216       H  0.99481854  0.45221591  0.82252481    -0.00600
H1217       H  0.03784438  0.46268123  0.83212142     0.00900
H1218       H  0.94067152  0.37963400  0.96488540     0.04500
H1219       H  0.96860272  0.41720202  0.98729106     0.06500
H1220       H  0.98325325  0.38906927  0.97475507     0.07300
C1221       C  0.96473390  0.40609295  0.61330502    -0.22300
C1222       C  0.99703049  0.41277466  0.62291351     0.09700
C1223       C  0.02606400  0.43875306  0.60747839     0.10100
C1224       C  0.02211424  0.45753681  0.58258628    -0.17200
C1225       C  0.98970175  0.45093272  0.57249491    -0.34800
C1226       C  0.96052464  0.42469780  0.58838134     0.18400
C1227       C  0.99946348  0.39122716  0.64847248     0.12400
C1228       C  0.06117913  0.44665451  0.61738023    -0.12000
H1229       H  0.04465907  0.47747078  0.57089382     0.12700
C1230       C  0.92478308  0.41579567  0.57961162    -0.22800
H1231       H  0.94261545  0.38592527  0.62536986     0.08300
C1232       C  0.99706799  0.39709817  0.68196553     0.04600
C1233       C  0.99616147  0.37400343  0.70503996    -0.20000
C1234       C  0.99699707  0.34494934  0.69523691    -0.12300
C1235       C  0.00084748  0.33988728  0.66174930     0.13300
C1236       C  0.00197309  0.36310090  0.63879140    -0.22800
C1237       C  0.99464800  0.42725676  0.69320635    -0.05800
H1238       H  0.99309497  0.37776650  0.73069865     0.14900
C1239       C  0.00382042  0.31033086  0.64941054    -0.16000
H1240       H  0.00408422  0.35884627  0.61304203     0.09200
H1241       H  0.90551337  0.39486146  0.59486403     0.07100
H1242       H  0.91960474  0.40744141  0.55378557     0.08300
H1243       H  0.92129421  0.43791727  0.58354654     0.07300
H1244       H  0.06410976  0.42419330  0.61336337     0.02200
H1245       H  0.06517875  0.45368133  0.64359911     0.02700
H1246       H  0.08122328  0.46794425  0.60305498     0.06200
H1247       H  0.99300186  0.42813366  0.72021466     0.05200
H1248       H  0.97160565  0.42620828  0.68283540    -0.00600
H1249       H  0.01749125  0.45079947  0.68496146     0.00900
H1250       H  0.98208455  0.29454271  0.63315802     0.04500
H1251       H  0.00426547  0.29418264  0.66926720     0.06500
H1252       H  0.02785504  0.31975495  0.63532963     0.07300
C1253       C  0.65934593  0.64728147  0.64857871    -0.22300
C1254       C  0.62630331  0.62137369  0.65575557     0.09700
C1255       C  0.61305584  0.61833219  0.68759273     0.10100
C1256       C  0.63267099  0.64241162  0.71125543    -0.17200
C1257       C  0.66536777  0.66891597  0.70383380    -0.27600
C1258       C  0.67904039  0.67122881  0.67229673     0.18400
C1259       C  0.60532177  0.59899128  0.62901351     0.12400
C1260       C  0.57813302  0.58995276  0.69639956    -0.12000
H1261       H  0.62196515  0.64126431  0.73520015     0.12700
C1262       C  0.71398520  0.69945000  0.66341754    -0.22800
H1263       H  0.66929730  0.64932142  0.62406671     0.08300
C1264       C  0.58377499  0.60654964  0.61075645     0.04600
C1265       C  0.56416251  0.58463089  0.58570115    -0.20000
C1266       C  0.56581350  0.55540413  0.57803411    -0.12300
C1267       C  0.58807650  0.54827125  0.59623785     0.13300
C1268       C  0.60741551  0.57018982  0.62154374    -0.22800
C1269       C  0.58174151  0.63795808  0.61754551    -0.05800
H1270       H  0.54758444  0.59061232  0.57187227     0.14900
C1271       C  0.59157720  0.51763859  0.58973460    -0.16000
H1272       H  0.62430845  0.56488151  0.63568412     0.09200
H1273       H  0.72091941  0.69719716  0.63786412     0.07100
H1274       H  0.73314482  0.69903055  0.67972018     0.08300
H1275       H  0.71491664  0.72406607  0.66595828     0.07300
H1276       H  0.57697508  0.56536664  0.69228501     0.02200
H1277       H  0.55866741  0.59110443  0.68109711     0.02700
H1278       H  0.57177887  0.59121662  0.72239867     0.06200
H1279       H  0.56378606  0.64020021  0.60086275     0.05200
H1280       H  0.60721661  0.66061933  0.61423424    -0.00600
H1281       H  0.57292462  0.63751539  0.64294695     0.00900
H1282       H  0.60176878  0.51897573  0.56475231     0.04500
H1283       H  0.56653453  0.49433801  0.59247992     0.06500
H1284       H  0.60937103  0.51588158  0.60702512     0.07300
C1285       C  0.65990924  0.65944637  0.87222471    -0.22300
C1286       C  0.63568816  0.62627028  0.86388293     0.09700
C1287       C  0.63100499  0.61630433  0.83087219     0.10100
C1288       C  0.64953680  0.64024594  0.80673169    -0.17200
C1289       C  0.67219682  0.67405470  0.81476190    -0.27600
C1290       C  0.67872968  0.68340178  0.84809039     0.18400
C1291       C  0.61327231  0.60320663  0.88967556     0.12400
C1292       C  0.60582519  0.58059801  0.82110733    -0.12000
H1293       H  0.64530831  0.63271811  0.78139153     0.12700
C1294       C  0.70582639  0.71789226  0.85918417    -0.22800
H1295       H  0.66385499  0.66678062  0.89771263     0.08300
C1296       C  0.62243255  0.58332317  0.90853938     0.04600
C1297       C  0.59955816  0.56145273  0.93221097    -0.20000
C1298       C  0.56770648  0.55907616  0.93747094    -0.12300
C1299       C  0.55859293  0.57896048  0.91796868     0.13300
C1300       C  0.58162942  0.60082024  0.89454395    -0.22800
C1301       C  0.65618318  0.58508933  0.90347163    -0.05800
H1302       H  0.60673756  0.54630667  0.94680903     0.14900
C1303       C  0.52439134  0.57680562  0.92067986    -0.16000
H1304       H  0.57483679  0.61604885  0.87956665     0.09200
H1305       H  0.72337156  0.71522587  0.87607764     0.07100
H1306       H  0.69385612  0.73067752  0.87225106     0.08300
H1307       H  0.72155908  0.73417595  0.83886513     0.07300
H1308       H  0.57987270  0.57419003  0.82912409     0.02200
H1309       H  0.61269216  0.56289901  0.83266528     0.02700
H1310       H  0.60539431  0.57703377  0.79425338     0.06200
H1311       H  0.65933254  0.56772466  0.92009973     0.05200
H1312       H  0.67711923  0.61117826  0.90818436    -0.00600
H1313       H  0.65822495  0.57797079  0.87797161     0.00900
H1314       H  0.52157825  0.58601394  0.94494767     0.04500
H1315       H  0.50383408  0.55031525  0.91694974     0.06500
H1316       H  0.52122544  0.59259995  0.90205153     0.07300
C1317       C  0.33890590  0.34840588  0.87057811    -0.22300
C1318       C  0.37138573  0.37349329  0.86069137     0.09700
C1319       C  0.37945129  0.37881923  0.82719468     0.10100
C1320       C  0.35433200  0.35968640  0.80417824    -0.17200
C1321       C  0.32135939  0.33529139  0.81393442    -0.27600
C1322       C  0.31383560  0.32888031  0.84766213     0.18400
C1323       C  0.39595204  0.39508954  0.88585908     0.12400
C1324       C  0.41432489  0.40521338  0.81581221    -0.12000
H1325       H  0.36018726  0.36456634  0.77841754     0.12700
C1326       C  0.28020057  0.30129610  0.86056132    -0.22800
H1327       H  0.33305120  0.34415589  0.89640032     0.08300
C1328       C  0.39539510  0.42356076  0.89831039     0.04600
C1329       C  0.41856871  0.44310435  0.92257285    -0.20000
C1330       C  0.44262623  0.43507638  0.93481450    -0.12300
C1331       C  0.44355163  0.40670455  0.92152944     0.13300
C1332       C  0.42000510  0.38703453  0.89736125    -0.22800
C1333       C  0.37035212  0.43337933  0.88583631    -0.05800
H1334       H  0.41769628  0.46483339  0.93203419     0.14900
C1335       C  0.46899349  0.39671064  0.93234465    -0.16000
H1336       H  0.42028283  0.36518547  0.88730647     0.09200
H1337       H  0.26759842  0.31262249  0.87499857     0.07100
H1338       H  0.28460884  0.28436698  0.87664054     0.08300
H1339       H  0.26264848  0.28528068  0.84119324     0.07300
H1340       H  0.43361079  0.39929017  0.82531449     0.02200
H1341       H  0.42007696  0.43044162  0.82487108     0.02700
H1342       H  0.41631716  0.40631576  0.78877149     0.06200
H1343       H  0.37355101  0.45659161  0.89790018     0.05200
H1344       H  0.34400313  0.41269321  0.89056425    -0.00600
H1345       H  0.37403548  0.43820179  0.85918349     0.00900
H1346       H  0.46584573  0.37407897  0.91908333     0.04500
H1347       H  0.46564388  0.39054794  0.95875637     0.06500
H1348       H  0.49519986  0.41760057  0.92741410     0.07300
C1349       C  0.36327913  0.39399449  0.67486418    -0.22300
C1350       C  0.37300973  0.37583168  0.65406376     0.09700
C1351       C  0.35960604  0.34093310  0.65919207     0.10100
C1352       C  0.33575156  0.32471549  0.68438625    -0.17200
C1353       C  0.32503106  0.34267196  0.70442658    -0.27600
C1354       C  0.33973410  0.37797349  0.70021485     0.18400
C1355       C  0.39615796  0.39383630  0.62630257     0.12400
C1356       C  0.36999369  0.32080094  0.63766998    -0.12000
H1357       H  0.32479160  0.29776854  0.68797910     0.12700
C1358       C  0.33192630  0.39970347  0.72237472    -0.22800
H1359       H  0.37406882  0.42092308  0.67116546     0.08300
C1360       C  0.38370471  0.40039975  0.59743679     0.04600
C1361       C  0.40661492  0.41985461  0.57269486    -0.20000
C1362       C  0.44169337  0.43242863  0.57586505    -0.12300
C1363       C  0.45408965  0.42510291  0.60449370     0.13300
C1364       C  0.43111546  0.40592972  0.62943437    -0.22800
C1365       C  0.34618891  0.38684985  0.59281529    -0.05800
H1366       H  0.39710833  0.42538351  0.55075157     0.14900
C1367       C  0.49157445  0.43887350  0.60959220    -0.16000
H1368       H  0.44046883  0.40089754  0.65175582     0.09200
H1369       H  0.31999759  0.41159214  0.70806069     0.07100
H1370       H  0.31479095  0.38558390  0.74292588     0.08300
H1371       H  0.35593004  0.41987544  0.73314645     0.07300
H1372       H  0.39781796  0.33095802  0.63958490     0.02200
H1373       H  0.36352842  0.32245056  0.61192258     0.02700
H1374       H  0.35688372  0.29375220  0.64476630     0.06200
H1375       H  0.34066147  0.39386232  0.56864591     0.05200
H1376       H  0.33642224  0.39714425  0.61194093    -0.00600
H1377       H  0.33243674  0.35887569  0.59452242     0.00900
H1378       H  0.49687078  0.43189286  0.63388496     0.04500
H1379       H  0.50517201  0.46685015  0.60799084     0.06500
H1380       H  0.50168758  0.42860156  0.59079052     0.07300
loop_ 
_geom_bond_atom_site_label_1 
_geom_bond_atom_site_label_2 
_geom_bond_distance 
_geom_bond_site_symmetry_2 
_ccdc_geom_bond_type 
O1            V9   1.897       .  S
O1           C11   1.265       .  A
O2          V699   1.899       .  S
O2           C12   1.266       .  A
O3            V9   1.895       .  S
O3           C13   1.263       .  A
O4          V699   1.899       .  S
O4           C14   1.264       .  A
O5           V10   1.906       .  S
O5           C14   1.266       .  A
O6          V700   1.906       .  S
O6           C13   1.266       .  A
O7           V10   1.900       .  S
O7           C12   1.264       .  A
O8          V700   1.903       .  S
O8           C11   1.265       .  A
V9          O692   1.899       .  S
V9          O694   1.899       .  S
V9          V700   2.083       .  T
V10         O696   1.906   1_554  S
V10         O698   1.903   1_554  S
V10         V699   2.083       .  T
C11         C640   1.495       .  S
C12         C576   1.491       .  S
C13         C608   1.490       .  S
C14         C672   1.482       .  S
O15         V713   1.900       .  S
O15          C25   1.264       .  A
O16          V23   1.899       .  S
O16          C26   1.263       .  A
O17         V713   1.903       .  S
O17          C27   1.265       .  A
O18          V23   1.901       .  S
O18          C28   1.265       .  A
O19          V24   1.901       .  S
O19          C28   1.266   1_455  A
O20         V714   1.896       .  S
O20          C27   1.265   1_455  A
O21          V24   1.903       .  S
O21          C26   1.265   1_455  A
O22         V714   1.905       .  S
O22          C25   1.264   1_455  A
V23         O705   1.900   1_554  S
V23         O707   1.903   1_554  S
V23          V24   2.085   1_655  T
V24         O710   1.896   1_554  S
V24         O712   1.905   1_554  S
C25         C512   1.475       .  S
C26         C439   1.477       .  S
C27         C471   1.492       .  S
C28         C535   1.496       .  S
O29         V727   1.897       .  S
O29          C39   1.265   1_545  A
O30          V37   1.898   1_554  S
O30          C40   1.263   1_545  A
O31         V727   1.903       .  S
O31          C41   1.266   1_545  A
O32          V37   1.905   1_554  S
O32          C42   1.266   1_545  A
O33          V38   1.898   1_554  S
O33          C42   1.264       .  A
O34         V728   1.895       .  S
O34          C41   1.263       .  A
O35          V38   1.899   1_554  S
O35          C40   1.265       .  A
O36         V728   1.901       .  S
O36          C39   1.264       .  A
V37         O719   1.897       .  S
V37         O721   1.903       .  S
V37          V38   2.084   1_545  T
V38         O724   1.895       .  S
V38         O726   1.901       .  S
C39         C375   1.490       .  S
C40         C311   1.483       .  S
C41         C343   1.485       .  S
C42         C407   1.491   1_565  S
C43          C44   1.540       .  S
C43          C49   1.543   1_455  S
C43          C47   1.548       .  S
C43         C247   1.550       .  S
C44          H51   1.086       .  S
C44          C45   1.368   1_455  D
C45          C46   1.535       .  S
C45         C480   1.485       .  S
C46          C50   1.537       .  S
C46          C48   1.528       .  S
C46          H52   1.110       .  S
C47          H53   1.080       .  S
C47          C48   1.362   1_455  D
C48         C448   1.476       .  S
C49          H54   1.086       .  S
C49          C50   1.370       .  D
C50         C279   1.488       .  S
C55          C56   1.542       .  S
C55          C61   1.532       .  S
C55          C59   1.551       .  S
C55         C215   1.545       .  S
C56          H63   1.086       .  S
C56          C57   1.370       .  D
C57          C58   1.539   1_655  S
C57         C503   1.491       .  S
C58          C62   1.543       .  S
C58          C60   1.534   1_455  S
C58          H64   1.111       .  S
C59          H65   1.081       .  S
C59          C60   1.365       .  D
C60         C544   1.482       .  S
C61          H66   1.087       .  S
C61          C62   1.361   1_655  D
C62         C183   1.481       .  S
C67          C68   1.535       .  S
C67          C73   1.545       .  S
C67          C71   1.548       .  S
C67         C192   1.543       .  S
C68          H75   1.086       .  S
C68          C69   1.366       .  D
C69          C70   1.536       .  S
C69         C631   1.484       .  S
C70          C74   1.537       .  S
C70          C72   1.533       .  S
C70          H76   1.110       .  S
C71          H77   1.085       .  S
C71          C72   1.365       .  D
C72         C663   1.483       .  S
C73          H78   1.085       .  S
C73          C74   1.369       .  D
C74         C151   1.489       .  S
C79          C80   1.535       .  S
C79          C85   1.545       .  S
C79          C83   1.548       .  S
C79         C160   1.545       .  S
C80          H87   1.087       .  S
C80          C81   1.364       .  D
C81          C82   1.538   1_545  S
C81         C384   1.484       .  S
C82          C86   1.543       .  S
C82          C84   1.534   1_565  S
C82          H88   1.108       .  S
C83          H89   1.083       .  S
C83          C84   1.363       .  D
C84         C416   1.480       .  S
C85          H90   1.086       .  S
C85          C86   1.370   1_545  D
C86         C256   1.496       .  S
C91          C92   1.533       .  S
C91          C97   1.548       .  S
C91          C95   1.536       .  S
C91         C224   1.548       .  S
C92          H99   1.086       .  S
C92          C93   1.360       .  D
C93          C94   1.551   1_545  S
C93         C320   1.485       .  S
C94          C98   1.545       .  S
C94          C96   1.545   1_565  S
C94         H100   1.100       .  S
C95         H101   1.086       .  S
C95          C96   1.372       .  D
C96         C352   1.509   1_545  S
C97         H102   1.080       .  S
C97          C98   1.368   1_545  D
C98         C128   1.503       .  S
C103        C104   1.531       .  S
C103        C109   1.543       .  S
C103        C107   1.553       .  S
C103        C119   1.546       .  S
C104        H111   1.087       .  S
C104        C105   1.360       .  D
C105        C106   1.538       .  S
C105        C567   1.477       .  S
C106        C110   1.540       .  S
C106        C108   1.532       .  S
C106        H112   1.110       .  S
C107        H113   1.081       .  S
C107        C108   1.368       .  D
C108        C599   1.486       .  S
C109        H114   1.085       .  S
C109        C110   1.371       .  D
C110        C288   1.496       .  S
C115        C116   1.397       .  A
C115        C120   1.405       .  A
C115        H125   1.085       .  S
C116        C121   1.483       .  S
C116        C117   1.405       .  A
C117        C122   1.508       .  S
C117        C118   1.405       .  A
C118        C119   1.417       .  A
C118        H123   1.075       .  S
C119        C120   1.431       .  A
C120        C124   1.511       .  S
C121        C126   1.408       .  A
C121        C130   1.398       .  A
C122        H138   1.110       .  S
C122        H139   1.109       .  S
C122        H140   1.111       .  S
C124        H135   1.110       .  S
C124        H136   1.111       .  S
C124        H137   1.101       .  S
C126        C131   1.507       .  S
C126        C127   1.404       .  A
C127        C128   1.411       .  A
C127        H132   1.084       .  S
C128        C129   1.422       .  A
C129        C133   1.501       .  S
C129        C130   1.405       .  A
C130        H134   1.085       .  S
C131        H141   1.111       .  S
C131        H142   1.110       .  S
C131        H143   1.109       .  S
C133        H144   1.111       .  S
C133        H145   1.093       .  S
C133        H146   1.110       .  S
C147        C148   1.400       .  A
C147        C152   1.405       .  A
C147        H157   1.084       .  S
C148        C153   1.484       .  S
C148        C149   1.410       .  A
C149        C154   1.506       .  S
C149        C150   1.405       .  A
C150        C151   1.405       .  A
C150        H155   1.084       .  S
C151        C152   1.418       .  A
C152        C156   1.507       .  S
C153        C158   1.406       .  A
C153        C162   1.396       .  A
C154        H170   1.110       .  S
C154        H171   1.109       .  S
C154        H172   1.111       .  S
C156        H167   1.106       .  S
C156        H168   1.111       .  S
C156        H169   1.108       .  S
C158        C163   1.508       .  S
C158        C159   1.405       .  A
C159        C160   1.417       .  A
C159        H164   1.077       .  S
C160        C161   1.431       .  A
C161        C165   1.511       .  S
C161        C162   1.405       .  A
C162        H166   1.085       .  S
C163        H173   1.111       .  S
C163        H174   1.110       .  S
C163        H175   1.109       .  S
C165        H176   1.111       .  S
C165        H177   1.101       .  S
C165        H178   1.110       .  S
C179        C180   1.403       .  A
C179        C184   1.405       .  A
C179        H189   1.084       .  S
C180        C185   1.487       .  S
C180        C181   1.413       .  A
C181        C186   1.508       .  S
C181        C182   1.406       .  A
C182        C183   1.403       .  A
C182        H187   1.084       .  S
C183        C184   1.414       .  A
C184        C188   1.506       .  S
C185        C190   1.409       .  A
C185        C194   1.400       .  A
C186        H202   1.110       .  S
C186        H203   1.107       .  S
C186        H204   1.111       .  S
C188        H199   1.110       .  S
C188        H200   1.110       .  S
C188        H201   1.107       .  S
C190        C195   1.509       .  S
C190        C191   1.405       .  A
C191        C192   1.414       .  A
C191        H196   1.080       .  S
C192        C193   1.428       .  A
C193        C197   1.509       .  S
C193        C194   1.407       .  A
C194        H198   1.085       .  S
C195        H205   1.111       .  S
C195        H206   1.110       .  S
C195        H207   1.107       .  S
C197        H208   1.111       .  S
C197        H209   1.105       .  S
C197        H210   1.110       .  S
C211        C212   1.398       .  A
C211        C216   1.406       .  A
C211        H221   1.085       .  S
C212        C217   1.486       .  S
C212        C213   1.407       .  A
C213        C218   1.509       .  S
C213        C214   1.403       .  A
C214        C215   1.415       .  A
C214        H219   1.075       .  S
C215        C216   1.430       .  A
C216        C220   1.511       .  S
C217        C222   1.407       .  A
C217        C226   1.396       .  A
C218        H234   1.109       .  S
C218        H235   1.110       .  S
C218        H236   1.111       .  S
C220        H231   1.111       .  S
C220        H232   1.110       .  S
C220        H233   1.102       .  S
C222        C227   1.508       .  S
C222        C223   1.405       .  A
C223        C224   1.416       .  A
C223        H228   1.075       .  S
C224        C225   1.433       .  A
C225        C229   1.511       .  S
C225        C226   1.403       .  A
C226        H230   1.086       .  S
C227        H237   1.111       .  S
C227        H238   1.109       .  S
C227        H239   1.110       .  S
C229        H240   1.111       .  S
C229        H241   1.098       .  S
C229        H242   1.111       .  S
C243        C244   1.399       .  A
C243        C248   1.408       .  A
C243        H253   1.085       .  S
C244        C249   1.488       .  S
C244        C245   1.406       .  A
C245        C250   1.509       .  S
C245        C246   1.405       .  A
C246        C247   1.418       .  A
C246        H251   1.074       .  S
C247        C248   1.431       .  A
C248        C252   1.511       .  S
C249        C254   1.411       .  A
C249        C258   1.400       .  A
C250        H266   1.110       .  S
C250        H267   1.108       .  S
C250        H268   1.111       .  S
C252        H263   1.110       .  S
C252        H264   1.111       .  S
C252        H265   1.101       .  S
C254        C259   1.507       .  S
C254        C255   1.408       .  A
C255        C256   1.408       .  A
C255        H260   1.084       .  S
C256        C257   1.420       .  A
C257        C261   1.506       .  S
C257        C258   1.406       .  A
C258        H262   1.084       .  S
C259        H269   1.111       .  S
C259        H270   1.110       .  S
C259        H271   1.108       .  S
C261        H272   1.111       .  S
C261        H273   1.107       .  S
C261        H274   1.106       .  S
C275        C276   1.401       .  A
C275        C280   1.405       .  A
C275        H285   1.084       .  S
C276        C281   1.483       .  S
C276        C277   1.411       .  A
C277        C282   1.507       .  S
C277        C278   1.405       .  A
C278        C279   1.405       .  A
C278        H283   1.084       .  S
C279        C280   1.417       .  A
C280        C284   1.507       .  S
C281        C286   1.409       .  A
C281        C290   1.399       .  A
C282        H298   1.110       .  S
C282        H299   1.109       .  S
C282        H300   1.111       .  S
C284        H295   1.107       .  S
C284        H296   1.111       .  S
C284        H297   1.109       .  S
C286        C291   1.507       .  S
C286        C287   1.406       .  A
C287        C288   1.408       .  A
C287        H292   1.082       .  S
C288        C289   1.422       .  A
C289        C293   1.509       .  S
C289        C290   1.403       .  A
C290        H294   1.085       .  S
C291        H301   1.111       .  S
C291        H302   1.110       .  S
C291        H303   1.109       .  S
C293        H304   1.111       .  S
C293        H305   1.105       .  S
C293        H306   1.110       .  S
C307        C308   1.400   1_545  A
C307        C312   1.404       .  A
C307        H317   1.084       .  S
C308        C313   1.479       .  S
C308        C309   1.409       .  A
C309        C314   1.506       .  S
C309        C310   1.403       .  A
C310        C311   1.406       .  A
C310        H315   1.084       .  S
C311        C312   1.419   1_565  A
C312        C316   1.508       .  S
C313        C318   1.409       .  A
C313        C322   1.398   1_565  A
C314        H330   1.110       .  S
C314        H331   1.110       .  S
C314        H332   1.111       .  S
C316        H327   1.111       .  S
C316        H328   1.109       .  S
C316        H329   1.111       .  S
C318        C323   1.506       .  S
C318        C319   1.405       .  A
C319        C320   1.405   1_565  A
C319        H324   1.082       .  S
C320        C321   1.418       .  A
C321        C325   1.508       .  S
C321        C322   1.401       .  A
C322        H326   1.085       .  S
C323        H333   1.111       .  S
C323        H334   1.110       .  S
C323        H335   1.110       .  S
C325        H336   1.110       .  S
C325        H337   1.105       .  S
C325        H338   1.111       .  S
C339        C340   1.398       .  A
C339        C344   1.403       .  A
C339        H349   1.084       .  S
C340        C345   1.479       .  S
C340        C341   1.410   1_565  A
C341        C346   1.507       .  S
C341        C342   1.404       .  A
C342        C343   1.406   1_545  A
C342        H347   1.084       .  S
C343        C344   1.420       .  A
C344        C348   1.508       .  S
C345        C350   1.405   1_565  A
C345        C354   1.396       .  A
C346        H362   1.110       .  S
C346        H363   1.110       .  S
C346        H364   1.111       .  S
C348        H359   1.111       .  S
C348        H360   1.109       .  S
C348        H361   1.111       .  S
C350        C355   1.507       .  S
C350        C351   1.402       .  A
C351        C352   1.413   1_545  A
C351        H356   1.083       .  S
C352        C353   1.427       .  A
C353        C357   1.504       .  S
C353        C354   1.406       .  A
C354        H358   1.084       .  S
C355        H365   1.111       .  S
C355        H366   1.110   1_545  S
C355        H367   1.110       .  S
C357        H368   1.108       .  S
C357        H369   1.098       .  S
C357        H370   1.111       .  S
C371        C372   1.399   1_565  A
C371        C376   1.406       .  A
C371        H381   1.084       .  S
C372        C377   1.479       .  S
C372        C373   1.409       .  A
C373        C378   1.508       .  S
C373        C374   1.402       .  A
C374        C375   1.409   1_545  A
C374        H379   1.084       .  S
C375        C376   1.421       .  A
C376        C380   1.508       .  S
C377        C382   1.410   1_545  A
C377        C386   1.399       .  A
C378        H394   1.110       .  S
C378        H395   1.109       .  S
C378        H396   1.111       .  S
C380        H391   1.111       .  S
C380        H392   1.111       .  S
C380        H393   1.110       .  S
C382        C387   1.507       .  S
C382        C383   1.403       .  A
C383        C384   1.404   1_565  A
C383        H388   1.083       .  S
C384        C385   1.419       .  A
C385        C389   1.508       .  S
C385        C386   1.401       .  A
C386        H390   1.085       .  S
C387        H397   1.111       .  S
C387        H398   1.110       .  S
C387        H399   1.109   1_565  S
C389        H400   1.111   1_545  S
C389        H401   1.105       .  S
C389        H402   1.110       .  S
C403        C404   1.401   1_545  A
C403        C408   1.405       .  A
C403        H413   1.084       .  S
C404        C409   1.486   1_565  S
C404        C405   1.409       .  A
C405        C410   1.506       .  S
C405        C406   1.406       .  A
C406        C407   1.409   1_565  A
C406        H411   1.084       .  S
C407        C408   1.419       .  A
C408        C412   1.507       .  S
C409        C414   1.412       .  A
C409        C418   1.404   1_545  A
C410        H426   1.110       .  S
C410        H427   1.110       .  S
C410        H428   1.111       .  S
C412        H423   1.110       .  S
C412        H424   1.111       .  S
C412        H425   1.111       .  S
C414        C419   1.506       .  S
C414        C415   1.404       .  A
C415        C416   1.402       .  A
C415        H420   1.084       .  S
C416        C417   1.410   1_545  A
C417        C421   1.506       .  S
C417        C418   1.407       .  A
C418        H422   1.084       .  S
C419        H429   1.111       .  S
C419        H430   1.110       .  S
C419        H431   1.110       .  S
C421        H432   1.111       .  S
C421        H433   1.110       .  S
C421        H434   1.110       .  S
C435        C436   1.399       .  A
C435        C440   1.403       .  A
C435        H445   1.084       .  S
C436        C441   1.479       .  S
C436        C437   1.411       .  A
C437        C442   1.507   1_655  S
C437        C438   1.403       .  A
C438        C439   1.404       .  A
C438        H443   1.084   1_655  S
C439        C440   1.419       .  A
C440        C444   1.508       .  S
C441        C446   1.411       .  A
C441        C450   1.399   1_655  A
C442        H458   1.110       .  S
C442        H459   1.110       .  S
C442        H460   1.111       .  S
C444        H455   1.110       .  S
C444        H456   1.111       .  S
C444        H457   1.105       .  S
C446        C451   1.505       .  S
C446        C447   1.406       .  A
C447        C448   1.402       .  A
C447        H452   1.084       .  S
C448        C449   1.415   1_655  A
C449        C453   1.508       .  S
C449        C450   1.399       .  A
C450        H454   1.085       .  S
C451        H461   1.111       .  S
C451        H462   1.110       .  S
C451        H463   1.110       .  S
C453        H464   1.111       .  S
C453        H465   1.107       .  S
C453        H466   1.110       .  S
C467        C468   1.399       .  A
C467        C472   1.406       .  A
C467        H477   1.084       .  S
C468        C473   1.479       .  S
C468        C469   1.407   1_655  A
C469        C474   1.507       .  S
C469        C470   1.401       .  A
C470        C471   1.409   1_455  A
C470        H475   1.084       .  S
C471        C472   1.422       .  A
C472        C476   1.507       .  S
C473        C478   1.409       .  A
C473        C482   1.400       .  A
C474        H490   1.110       .  S
C474        H491   1.110       .  S
C474        H492   1.111       .  S
C476        H487   1.110       .  S
C476        H488   1.111       .  S
C476        H489   1.110       .  S
C478        C483   1.506       .  S
C478        C479   1.402       .  A
C479        C480   1.406       .  A
C479        H484   1.084       .  S
C480        C481   1.417       .  A
C481        C485   1.507   1_655  S
C481        C482   1.402       .  A
C482        H486   1.085       .  S
C483        H493   1.111       .  S
C483        H494   1.110       .  S
C483        H495   1.110       .  S
C485        H496   1.111   1_455  S
C485        H497   1.105   1_455  S
C485        H498   1.110       .  S
C499        C500   1.400       .  A
C499        C504   1.404       .  A
C499        H509   1.084       .  S
C500        C505   1.485       .  S
C500        C501   1.411   1_655  A
C501        C506   1.506       .  S
C501        C502   1.407       .  A
C502        C503   1.404   1_455  A
C502        H507   1.080       .  S
C503        C504   1.419       .  A
C504        C508   1.508       .  S
C505        C510   1.411   1_655  A
C505        C514   1.402       .  A
C506        H522   1.110       .  S
C506        H523   1.110       .  S
C506        H524   1.111       .  S
C508        H519   1.111       .  S
C508        H520   1.110       .  S
C508        H521   1.107       .  S
C510        C515   1.506       .  S
C510        C511   1.406       .  A
C511        C512   1.404   1_455  A
C511        H516   1.084       .  S
C512        C513   1.415       .  A
C513        C517   1.508       .  S
C513        C514   1.404       .  A
C514        H518   1.085       .  S
C515        H525   1.111       .  S
C515        H526   1.110   1_455  S
C515        H527   1.110       .  S
C517        H528   1.110       .  S
C517        H529   1.108       .  S
C517        H530   1.110       .  S
C531        C532   1.399       .  A
C531        C536   1.405       .  A
C531        H541   1.084       .  S
C532        C537   1.483       .  S
C532        C533   1.407   1_655  A
C533        C538   1.506       .  S
C533        C534   1.405       .  A
C534        C535   1.411   1_455  A
C534        H539   1.083       .  S
C535        C536   1.423       .  A
C536        C540   1.508       .  S
C537        C542   1.411       .  A
C537        C546   1.401   1_655  A
C538        H554   1.110       .  S
C538        H555   1.110       .  S
C538        H556   1.111       .  S
C540        H551   1.111       .  S
C540        H552   1.110       .  S
C540        H553   1.109       .  S
C542        C547   1.506       .  S
C542        C543   1.405       .  A
C543        C544   1.404       .  A
C543        H548   1.084       .  S
C544        C545   1.415   1_655  A
C545        C549   1.507       .  S
C545        C546   1.403       .  A
C546        H550   1.085       .  S
C547        H557   1.111       .  S
C547        H558   1.110       .  S
C547        H559   1.110   1_655  S
C549        H560   1.110   1_455  S
C549        H561   1.108       .  S
C549        H562   1.110       .  S
C563        C564   1.401       .  A
C563        C568   1.403       .  A
C563        H573   1.084       .  S
C564        C569   1.479       .  S
C564        C565   1.411       .  A
C565        C570   1.507       .  S
C565        C566   1.404       .  A
C566        C567   1.402       .  A
C566        H571   1.082       .  S
C567        C568   1.411       .  A
C568        C572   1.506       .  S
C569        C574   1.409       .  A
C569        C578   1.398       .  A
C570        H586   1.110       .  S
C570        H587   1.109       .  S
C570        H588   1.111       .  S
C572        H583   1.111       .  S
C572        H584   1.108       .  S
C572        H585   1.109       .  S
C574        C579   1.508       .  S
C574        C575   1.402       .  A
C575        C576   1.408       .  A
C575        H580   1.084       .  S
C576        C577   1.423       .  A
C577        C581   1.508       .  S
C577        C578   1.406       .  A
C578        H582   1.084       .  S
C579        H589   1.111       .  S
C579        H590   1.110       .  S
C579        H591   1.109       .  S
C581        H592   1.110       .  S
C581        H593   1.109       .  S
C581        H594   1.111       .  S
C595        C596   1.401       .  A
C595        C600   1.404       .  A
C595        H605   1.084       .  S
C596        C601   1.479       .  S
C596        C597   1.409       .  A
C597        C602   1.507       .  S
C597        C598   1.401       .  A
C598        C599   1.403       .  A
C598        H603   1.081       .  S
C599        C600   1.418       .  A
C600        C604   1.507       .  S
C601        C606   1.408       .  A
C601        C610   1.398       .  A
C602        H618   1.110       .  S
C602        H619   1.110       .  S
C602        H620   1.111       .  S
C604        H615   1.111       .  S
C604        H616   1.110       .  S
C604        H617   1.106       .  S
C606        C611   1.506       .  S
C606        C607   1.406       .  A
C607        C608   1.409       .  A
C607        H612   1.084       .  S
C608        C609   1.422       .  A
C609        C613   1.509       .  S
C609        C610   1.402       .  A
C610        H614   1.085       .  S
C611        H621   1.111       .  S
C611        H622   1.110       .  S
C611        H623   1.110       .  S
C613        H624   1.109       .  S
C613        H625   1.111       .  S
C613        H626   1.111       .  S
C627        C628   1.401       .  A
C627        C632   1.403       .  A
C627        H637   1.084       .  S
C628        C633   1.480       .  S
C628        C629   1.409       .  A
C629        C634   1.506       .  S
C629        C630   1.403       .  A
C630        C631   1.405       .  A
C630        H635   1.084       .  S
C631        C632   1.418       .  A
C632        C636   1.508       .  S
C633        C638   1.407       .  A
C633        C642   1.399       .  A
C634        H650   1.110       .  S
C634        H651   1.110       .  S
C634        H652   1.111       .  S
C636        H647   1.110       .  S
C636        H648   1.111       .  S
C636        H649   1.106       .  S
C638        C643   1.507       .  S
C638        C639   1.401       .  A
C639        C640   1.409       .  A
C639        H644   1.083       .  S
C640        C641   1.424       .  A
C641        C645   1.507       .  S
C641        C642   1.407       .  A
C642        H646   1.084       .  S
C643        H653   1.111       .  S
C643        H654   1.110       .  S
C643        H655   1.110       .  S
C645        H656   1.111       .  S
C645        H657   1.110       .  S
C645        H658   1.110       .  S
C659        C660   1.401       .  A
C659        C664   1.403       .  A
C659        H669   1.085       .  S
C660        C665   1.485       .  S
C660        C661   1.411       .  A
C661        C666   1.505       .  S
C661        C662   1.407       .  A
C662        C663   1.404       .  A
C662        H667   1.084       .  S
C663        C664   1.416       .  A
C664        C668   1.508       .  S
C665        C670   1.411       .  A
C665        C674   1.402       .  A
C666        H682   1.110       .  S
C666        H683   1.110       .  S
C666        H684   1.111       .  S
C668        H679   1.110       .  S
C668        H680   1.107       .  S
C668        H681   1.111       .  S
C670        C675   1.507       .  S
C670        C671   1.404       .  A
C671        C672   1.404       .  A
C671        H676   1.084       .  S
C672        C673   1.416       .  A
C673        C677   1.506       .  S
C673        C674   1.408       .  A
C674        H678   1.084       .  S
C675        H685   1.111       .  S
C675        H686   1.110       .  S
C675        H687   1.110       .  S
C677        H688   1.111       .  S
C677        H689   1.110       .  S
C677        H690   1.110       .  S
O691        V699   1.897   1_556  S
O691        C701   1.265       .  A
O692        C702   1.266       .  A
O693        V699   1.895   1_556  S
O693        C703   1.263       .  A
O694        C704   1.264       .  A
O695        V700   1.906       .  S
O695        C704   1.266       .  A
O696        C703   1.266       .  A
O697        V700   1.900       .  S
O697        C702   1.264       .  A
O698        C701   1.265       .  A
C701       C1330   1.495       .  S
C702       C1266   1.491       .  S
C703       C1298   1.490       .  S
C704       C1362   1.482       .  S
O705        C715   1.264       .  A
O706        V713   1.899       .  S
O706        C716   1.263       .  A
O707        C717   1.265       .  A
O708        V713   1.901       .  S
O708        C718   1.265       .  A
O709        V714   1.901       .  S
O709        C718   1.266   1_455  A
O710        C717   1.265   1_455  A
O711        V714   1.903       .  S
O711        C716   1.265   1_455  A
O712        C715   1.264   1_455  A
V713        V714   2.085   1_655  T
C715       C1202   1.475       .  S
C716       C1129   1.477       .  S
C717       C1161   1.492       .  S
C718       C1225   1.496       .  S
O719        C729   1.265   1_545  A
O720        V727   1.898       .  S
O720        C730   1.263   1_545  A
O721        C731   1.266   1_545  A
O722        V727   1.905       .  S
O722        C732   1.266   1_545  A
O723        V728   1.898       .  S
O723        C732   1.264       .  A
O724        C731   1.263       .  A
O725        V728   1.899       .  S
O725        C730   1.265       .  A
O726        C729   1.264       .  A
V727        V728   2.084   1_545  T
C729       C1065   1.490       .  S
C730       C1001   1.483       .  S
C731       C1033   1.485       .  S
C732       C1097   1.491   1_565  S
C733        C734   1.540       .  S
C733        C739   1.543   1_455  S
C733        C737   1.548       .  S
C733        C937   1.550       .  S
C734        H741   1.086       .  S
C734        C735   1.368   1_455  D
C735        C736   1.535       .  S
C735       C1170   1.485       .  S
C736        C740   1.537       .  S
C736        C738   1.528       .  S
C736        H742   1.110       .  S
C737        H743   1.080       .  S
C737        C738   1.362   1_455  D
C738       C1138   1.476       .  S
C739        H744   1.086       .  S
C739        C740   1.370       .  D
C740        C969   1.488       .  S
C745        C746   1.542       .  S
C745        C751   1.532       .  S
C745        C749   1.551       .  S
C745        C905   1.545       .  S
C746        H753   1.086       .  S
C746        C747   1.370       .  D
C747        C748   1.539   1_655  S
C747       C1193   1.491       .  S
C748        C752   1.543       .  S
C748        C750   1.534   1_455  S
C748        H754   1.111       .  S
C749        H755   1.081       .  S
C749        C750   1.365       .  D
C750       C1234   1.482       .  S
C751        H756   1.087       .  S
C751        C752   1.361   1_655  D
C752        C873   1.481       .  S
C757        C758   1.535       .  S
C757        C763   1.545       .  S
C757        C761   1.548       .  S
C757        C882   1.543       .  S
C758        H765   1.086       .  S
C758        C759   1.366       .  D
C759        C760   1.536       .  S
C759       C1321   1.484       .  S
C760        C764   1.537       .  S
C760        C762   1.533       .  S
C760        H766   1.110       .  S
C761        H767   1.085       .  S
C761        C762   1.365       .  D
C762       C1353   1.483       .  S
C763        H768   1.085       .  S
C763        C764   1.369       .  D
C764        C841   1.489       .  S
C769        C770   1.535       .  S
C769        C775   1.545       .  S
C769        C773   1.548       .  S
C769        C850   1.545       .  S
C770        H777   1.087       .  S
C770        C771   1.364       .  D
C771        C772   1.538   1_545  S
C771       C1074   1.484       .  S
C772        C776   1.543       .  S
C772        C774   1.534   1_565  S
C772        H778   1.108       .  S
C773        H779   1.083       .  S
C773        C774   1.363       .  D
C774       C1106   1.480       .  S
C775        H780   1.086       .  S
C775        C776   1.370   1_545  D
C776        C946   1.496       .  S
C781        C782   1.533       .  S
C781        C787   1.548       .  S
C781        C785   1.536       .  S
C781        C914   1.548       .  S
C782        H789   1.086       .  S
C782        C783   1.360       .  D
C783        C784   1.551   1_545  S
C783       C1010   1.485       .  S
C784        C788   1.545       .  S
C784        C786   1.545   1_565  S
C784        H790   1.100       .  S
C785        H791   1.086       .  S
C785        C786   1.372       .  D
C786       C1042   1.509   1_545  S
C787        H792   1.080       .  S
C787        C788   1.368   1_545  D
C788        C818   1.503       .  S
C793        C794   1.531       .  S
C793        C799   1.543       .  S
C793        C797   1.553       .  S
C793        C809   1.546       .  S
C794        H801   1.087       .  S
C794        C795   1.360       .  D
C795        C796   1.538       .  S
C795       C1257   1.477       .  S
C796        C800   1.540       .  S
C796        C798   1.532       .  S
C796        H802   1.110       .  S
C797        H803   1.081       .  S
C797        C798   1.368       .  D
C798       C1289   1.486       .  S
C799        H804   1.085       .  S
C799        C800   1.371       .  D
C800        C978   1.496       .  S
C805        C806   1.397       .  A
C805        C810   1.405       .  A
C805        H815   1.085       .  S
C806        C811   1.483       .  S
C806        C807   1.405       .  A
C807        C812   1.508       .  S
C807        C808   1.405       .  A
C808        C809   1.417       .  A
C808        H813   1.075       .  S
C809        C810   1.431       .  A
C810        C814   1.511       .  S
C811        C816   1.408       .  A
C811        C820   1.398       .  A
C812        H828   1.110       .  S
C812        H829   1.109       .  S
C812        H830   1.111       .  S
C814        H825   1.110       .  S
C814        H826   1.111       .  S
C814        H827   1.101       .  S
C816        C821   1.507       .  S
C816        C817   1.404       .  A
C817        C818   1.411       .  A
C817        H822   1.084       .  S
C818        C819   1.422       .  A
C819        C823   1.501       .  S
C819        C820   1.405       .  A
C820        H824   1.085       .  S
C821        H831   1.111       .  S
C821        H832   1.110       .  S
C821        H833   1.109       .  S
C823        H834   1.111       .  S
C823        H835   1.093       .  S
C823        H836   1.110       .  S
C837        C838   1.400       .  A
C837        C842   1.405       .  A
C837        H847   1.084       .  S
C838        C843   1.484       .  S
C838        C839   1.410       .  A
C839        C844   1.506       .  S
C839        C840   1.405       .  A
C840        C841   1.405       .  A
C840        H845   1.084       .  S
C841        C842   1.418       .  A
C842        C846   1.507       .  S
C843        C848   1.406       .  A
C843        C852   1.396       .  A
C844        H860   1.110       .  S
C844        H861   1.109       .  S
C844        H862   1.111       .  S
C846        H857   1.106       .  S
C846        H858   1.111       .  S
C846        H859   1.108       .  S
C848        C853   1.508       .  S
C848        C849   1.405       .  A
C849        C850   1.417       .  A
C849        H854   1.077       .  S
C850        C851   1.431       .  A
C851        C855   1.511       .  S
C851        C852   1.405       .  A
C852        H856   1.085       .  S
C853        H863   1.111       .  S
C853        H864   1.110       .  S
C853        H865   1.109       .  S
C855        H866   1.111       .  S
C855        H867   1.101       .  S
C855        H868   1.110       .  S
C869        C870   1.403       .  A
C869        C874   1.405       .  A
C869        H879   1.084       .  S
C870        C875   1.487       .  S
C870        C871   1.413       .  A
C871        C876   1.508       .  S
C871        C872   1.406       .  A
C872        C873   1.403       .  A
C872        H877   1.084       .  S
C873        C874   1.414       .  A
C874        C878   1.506       .  S
C875        C880   1.409       .  A
C875        C884   1.400       .  A
C876        H892   1.110       .  S
C876        H893   1.107       .  S
C876        H894   1.111       .  S
C878        H889   1.110       .  S
C878        H890   1.110       .  S
C878        H891   1.107       .  S
C880        C885   1.509       .  S
C880        C881   1.405       .  A
C881        C882   1.414       .  A
C881        H886   1.080       .  S
C882        C883   1.428       .  A
C883        C887   1.509       .  S
C883        C884   1.407       .  A
C884        H888   1.085       .  S
C885        H895   1.111       .  S
C885        H896   1.110       .  S
C885        H897   1.107       .  S
C887        H898   1.111       .  S
C887        H899   1.105       .  S
C887        H900   1.110       .  S
C901        C902   1.398       .  A
C901        C906   1.406       .  A
C901        H911   1.085       .  S
C902        C907   1.486       .  S
C902        C903   1.407       .  A
C903        C908   1.509       .  S
C903        C904   1.403       .  A
C904        C905   1.415       .  A
C904        H909   1.075       .  S
C905        C906   1.430       .  A
C906        C910   1.511       .  S
C907        C912   1.407       .  A
C907        C916   1.396       .  A
C908        H924   1.109       .  S
C908        H925   1.110       .  S
C908        H926   1.111       .  S
C910        H921   1.111       .  S
C910        H922   1.110       .  S
C910        H923   1.102       .  S
C912        C917   1.508       .  S
C912        C913   1.405       .  A
C913        C914   1.416       .  A
C913        H918   1.075       .  S
C914        C915   1.433       .  A
C915        C919   1.511       .  S
C915        C916   1.403       .  A
C916        H920   1.086       .  S
C917        H927   1.111       .  S
C917        H928   1.109       .  S
C917        H929   1.110       .  S
C919        H930   1.111       .  S
C919        H931   1.098       .  S
C919        H932   1.111       .  S
C933        C934   1.399       .  A
C933        C938   1.408       .  A
C933        H943   1.085       .  S
C934        C939   1.488       .  S
C934        C935   1.406       .  A
C935        C940   1.509       .  S
C935        C936   1.405       .  A
C936        C937   1.418       .  A
C936        H941   1.074       .  S
C937        C938   1.431       .  A
C938        C942   1.511       .  S
C939        C944   1.411       .  A
C939        C948   1.400       .  A
C940        H956   1.110       .  S
C940        H957   1.108       .  S
C940        H958   1.111       .  S
C942        H953   1.110       .  S
C942        H954   1.111       .  S
C942        H955   1.101       .  S
C944        C949   1.507       .  S
C944        C945   1.408       .  A
C945        C946   1.408       .  A
C945        H950   1.084       .  S
C946        C947   1.420       .  A
C947        C951   1.507       .  S
C947        C948   1.406       .  A
C948        H952   1.084       .  S
C949        H959   1.111       .  S
C949        H960   1.110       .  S
C949        H961   1.108       .  S
C951        H962   1.111       .  S
C951        H963   1.107       .  S
C951        H964   1.106       .  S
C965        C966   1.401       .  A
C965        C970   1.405       .  A
C965        H975   1.084       .  S
C966        C971   1.483       .  S
C966        C967   1.411       .  A
C967        C972   1.507       .  S
C967        C968   1.405       .  A
C968        C969   1.405       .  A
C968        H973   1.084       .  S
C969        C970   1.417       .  A
C970        C974   1.507       .  S
C971        C976   1.409       .  A
C971        C980   1.399       .  A
C972        H988   1.110       .  S
C972        H989   1.109       .  S
C972        H990   1.111       .  S
C974        H985   1.107       .  S
C974        H986   1.111       .  S
C974        H987   1.109       .  S
C976        C981   1.507       .  S
C976        C977   1.406       .  A
C977        C978   1.408       .  A
C977        H982   1.082       .  S
C978        C979   1.422       .  A
C979        C983   1.509       .  S
C979        C980   1.403       .  A
C980        H984   1.085       .  S
C981        H991   1.111       .  S
C981        H992   1.110       .  S
C981        H993   1.109       .  S
C983        H994   1.111       .  S
C983        H995   1.105       .  S
C983        H996   1.110       .  S
C997        C998   1.400   1_545  A
C997       C1002   1.404       .  A
C997       H1007   1.084       .  S
C998       C1003   1.479       .  S
C998        C999   1.409       .  A
C999       C1004   1.506       .  S
C999       C1000   1.403       .  A
C1000      C1001   1.406       .  A
C1000      H1005   1.084       .  S
C1001      C1002   1.419   1_565  A
C1002      C1006   1.508       .  S
C1003      C1008   1.409       .  A
C1003      C1012   1.398   1_565  A
C1004      H1020   1.110       .  S
C1004      H1021   1.110       .  S
C1004      H1022   1.111       .  S
C1006      H1017   1.111       .  S
C1006      H1018   1.109       .  S
C1006      H1019   1.111       .  S
C1008      C1013   1.506       .  S
C1008      C1009   1.405       .  A
C1009      C1010   1.405   1_565  A
C1009      H1014   1.082       .  S
C1010      C1011   1.418       .  A
C1011      C1015   1.508       .  S
C1011      C1012   1.401       .  A
C1012      H1016   1.085       .  S
C1013      H1023   1.111       .  S
C1013      H1024   1.110       .  S
C1013      H1025   1.110       .  S
C1015      H1026   1.110       .  S
C1015      H1027   1.105       .  S
C1015      H1028   1.111       .  S
C1029      C1030   1.398       .  A
C1029      C1034   1.403       .  A
C1029      H1039   1.084       .  S
C1030      C1035   1.479       .  S
C1030      C1031   1.410   1_565  A
C1031      C1036   1.507       .  S
C1031      C1032   1.404       .  A
C1032      C1033   1.406   1_545  A
C1032      H1037   1.084       .  S
C1033      C1034   1.420       .  A
C1034      C1038   1.508       .  S
C1035      C1040   1.405   1_565  A
C1035      C1044   1.396       .  A
C1036      H1052   1.110       .  S
C1036      H1053   1.110       .  S
C1036      H1054   1.111       .  S
C1038      H1049   1.111       .  S
C1038      H1050   1.109       .  S
C1038      H1051   1.111       .  S
C1040      C1045   1.507       .  S
C1040      C1041   1.402       .  A
C1041      C1042   1.413   1_545  A
C1041      H1046   1.083       .  S
C1042      C1043   1.427       .  A
C1043      C1047   1.504       .  S
C1043      C1044   1.406       .  A
C1044      H1048   1.084       .  S
C1045      H1055   1.111       .  S
C1045      H1056   1.110   1_545  S
C1045      H1057   1.110       .  S
C1047      H1058   1.108       .  S
C1047      H1059   1.098       .  S
C1047      H1060   1.111       .  S
C1061      C1062   1.399   1_565  A
C1061      C1066   1.406       .  A
C1061      H1071   1.084       .  S
C1062      C1067   1.479       .  S
C1062      C1063   1.409       .  A
C1063      C1068   1.508       .  S
C1063      C1064   1.402       .  A
C1064      C1065   1.409   1_545  A
C1064      H1069   1.084       .  S
C1065      C1066   1.421       .  A
C1066      C1070   1.508       .  S
C1067      C1072   1.410   1_545  A
C1067      C1076   1.399       .  A
C1068      H1084   1.110       .  S
C1068      H1085   1.109       .  S
C1068      H1086   1.111       .  S
C1070      H1081   1.111       .  S
C1070      H1082   1.111       .  S
C1070      H1083   1.110       .  S
C1072      C1077   1.507       .  S
C1072      C1073   1.403       .  A
C1073      C1074   1.404   1_565  A
C1073      H1078   1.083       .  S
C1074      C1075   1.419       .  A
C1075      C1079   1.508       .  S
C1075      C1076   1.401       .  A
C1076      H1080   1.085       .  S
C1077      H1087   1.111       .  S
C1077      H1088   1.110       .  S
C1077      H1089   1.109   1_565  S
C1079      H1090   1.111   1_545  S
C1079      H1091   1.105       .  S
C1079      H1092   1.110       .  S
C1093      C1094   1.401   1_545  A
C1093      C1098   1.405       .  A
C1093      H1103   1.084       .  S
C1094      C1099   1.486   1_565  S
C1094      C1095   1.409       .  A
C1095      C1100   1.506       .  S
C1095      C1096   1.406       .  A
C1096      C1097   1.409   1_565  A
C1096      H1101   1.084       .  S
C1097      C1098   1.419       .  A
C1098      C1102   1.507       .  S
C1099      C1104   1.412       .  A
C1099      C1108   1.404   1_545  A
C1100      H1116   1.110       .  S
C1100      H1117   1.110       .  S
C1100      H1118   1.111       .  S
C1102      H1113   1.110       .  S
C1102      H1114   1.111       .  S
C1102      H1115   1.111       .  S
C1104      C1109   1.506       .  S
C1104      C1105   1.404       .  A
C1105      C1106   1.402       .  A
C1105      H1110   1.084       .  S
C1106      C1107   1.410   1_545  A
C1107      C1111   1.506       .  S
C1107      C1108   1.407       .  A
C1108      H1112   1.084       .  S
C1109      H1119   1.111       .  S
C1109      H1120   1.110       .  S
C1109      H1121   1.110       .  S
C1111      H1122   1.111       .  S
C1111      H1123   1.110       .  S
C1111      H1124   1.110       .  S
C1125      C1126   1.399       .  A
C1125      C1130   1.403       .  A
C1125      H1135   1.084       .  S
C1126      C1131   1.479       .  S
C1126      C1127   1.411       .  A
C1127      C1132   1.507   1_655  S
C1127      C1128   1.403       .  A
C1128      C1129   1.404       .  A
C1128      H1133   1.084   1_655  S
C1129      C1130   1.419       .  A
C1130      C1134   1.508       .  S
C1131      C1136   1.411       .  A
C1131      C1140   1.399   1_655  A
C1132      H1148   1.110       .  S
C1132      H1149   1.110       .  S
C1132      H1150   1.111       .  S
C1134      H1145   1.110       .  S
C1134      H1146   1.111       .  S
C1134      H1147   1.105       .  S
C1136      C1141   1.505       .  S
C1136      C1137   1.406       .  A
C1137      C1138   1.402       .  A
C1137      H1142   1.084       .  S
C1138      C1139   1.415   1_655  A
C1139      C1143   1.508       .  S
C1139      C1140   1.399       .  A
C1140      H1144   1.085       .  S
C1141      H1151   1.111       .  S
C1141      H1152   1.110       .  S
C1141      H1153   1.110       .  S
C1143      H1154   1.111       .  S
C1143      H1155   1.107       .  S
C1143      H1156   1.110       .  S
C1157      C1158   1.399       .  A
C1157      C1162   1.406       .  A
C1157      H1167   1.084       .  S
C1158      C1163   1.479       .  S
C1158      C1159   1.407   1_655  A
C1159      C1164   1.507       .  S
C1159      C1160   1.401       .  A
C1160      C1161   1.409   1_455  A
C1160      H1165   1.084       .  S
C1161      C1162   1.422       .  A
C1162      C1166   1.507       .  S
C1163      C1168   1.409       .  A
C1163      C1172   1.400       .  A
C1164      H1180   1.110       .  S
C1164      H1181   1.110       .  S
C1164      H1182   1.111       .  S
C1166      H1177   1.110       .  S
C1166      H1178   1.111       .  S
C1166      H1179   1.110       .  S
C1168      C1173   1.506       .  S
C1168      C1169   1.402       .  A
C1169      C1170   1.406       .  A
C1169      H1174   1.084       .  S
C1170      C1171   1.417       .  A
C1171      C1175   1.507   1_655  S
C1171      C1172   1.402       .  A
C1172      H1176   1.085       .  S
C1173      H1183   1.111       .  S
C1173      H1184   1.110       .  S
C1173      H1185   1.110       .  S
C1175      H1186   1.111   1_455  S
C1175      H1187   1.105   1_455  S
C1175      H1188   1.110       .  S
C1189      C1190   1.400       .  A
C1189      C1194   1.404       .  A
C1189      H1199   1.084       .  S
C1190      C1195   1.485       .  S
C1190      C1191   1.411   1_655  A
C1191      C1196   1.506       .  S
C1191      C1192   1.407       .  A
C1192      C1193   1.404   1_455  A
C1192      H1197   1.080       .  S
C1193      C1194   1.419       .  A
C1194      C1198   1.508       .  S
C1195      C1200   1.411   1_655  A
C1195      C1204   1.402       .  A
C1196      H1212   1.110       .  S
C1196      H1213   1.110       .  S
C1196      H1214   1.111       .  S
C1198      H1209   1.111       .  S
C1198      H1210   1.110       .  S
C1198      H1211   1.107       .  S
C1200      C1205   1.506       .  S
C1200      C1201   1.406       .  A
C1201      C1202   1.404   1_455  A
C1201      H1206   1.084       .  S
C1202      C1203   1.415       .  A
C1203      C1207   1.508       .  S
C1203      C1204   1.404       .  A
C1204      H1208   1.085       .  S
C1205      H1215   1.111       .  S
C1205      H1216   1.110   1_455  S
C1205      H1217   1.110       .  S
C1207      H1218   1.110       .  S
C1207      H1219   1.108       .  S
C1207      H1220   1.110       .  S
C1221      C1222   1.399       .  A
C1221      C1226   1.405       .  A
C1221      H1231   1.084       .  S
C1222      C1227   1.483       .  S
C1222      C1223   1.407   1_655  A
C1223      C1228   1.506       .  S
C1223      C1224   1.405       .  A
C1224      C1225   1.411   1_455  A
C1224      H1229   1.083       .  S
C1225      C1226   1.423       .  A
C1226      C1230   1.508       .  S
C1227      C1232   1.411       .  A
C1227      C1236   1.401   1_655  A
C1228      H1244   1.110       .  S
C1228      H1245   1.110       .  S
C1228      H1246   1.111       .  S
C1230      H1241   1.111       .  S
C1230      H1242   1.110       .  S
C1230      H1243   1.109       .  S
C1232      C1237   1.506       .  S
C1232      C1233   1.405       .  A
C1233      C1234   1.404       .  A
C1233      H1238   1.084       .  S
C1234      C1235   1.415   1_655  A
C1235      C1239   1.507       .  S
C1235      C1236   1.403       .  A
C1236      H1240   1.085       .  S
C1237      H1247   1.111       .  S
C1237      H1248   1.110       .  S
C1237      H1249   1.110   1_655  S
C1239      H1250   1.110   1_455  S
C1239      H1251   1.108       .  S
C1239      H1252   1.110       .  S
C1253      C1254   1.401       .  A
C1253      C1258   1.403       .  A
C1253      H1263   1.084       .  S
C1254      C1259   1.479       .  S
C1254      C1255   1.411       .  A
C1255      C1260   1.507       .  S
C1255      C1256   1.404       .  A
C1256      C1257   1.402       .  A
C1256      H1261   1.082       .  S
C1257      C1258   1.411       .  A
C1258      C1262   1.506       .  S
C1259      C1264   1.409       .  A
C1259      C1268   1.398       .  A
C1260      H1276   1.110       .  S
C1260      H1277   1.109       .  S
C1260      H1278   1.111       .  S
C1262      H1273   1.111       .  S
C1262      H1274   1.108       .  S
C1262      H1275   1.109       .  S
C1264      C1269   1.508       .  S
C1264      C1265   1.402       .  A
C1265      C1266   1.408       .  A
C1265      H1270   1.084       .  S
C1266      C1267   1.423       .  A
C1267      C1271   1.508       .  S
C1267      C1268   1.406       .  A
C1268      H1272   1.084       .  S
C1269      H1279   1.111       .  S
C1269      H1280   1.110       .  S
C1269      H1281   1.109       .  S
C1271      H1282   1.110       .  S
C1271      H1283   1.109       .  S
C1271      H1284   1.111       .  S
C1285      C1286   1.401       .  A
C1285      C1290   1.404       .  A
C1285      H1295   1.084       .  S
C1286      C1291   1.479       .  S
C1286      C1287   1.409       .  A
C1287      C1292   1.507       .  S
C1287      C1288   1.401       .  A
C1288      C1289   1.403       .  A
C1288      H1293   1.081       .  S
C1289      C1290   1.418       .  A
C1290      C1294   1.507       .  S
C1291      C1296   1.408       .  A
C1291      C1300   1.398       .  A
C1292      H1308   1.110       .  S
C1292      H1309   1.110       .  S
C1292      H1310   1.111       .  S
C1294      H1305   1.111       .  S
C1294      H1306   1.110       .  S
C1294      H1307   1.106       .  S
C1296      C1301   1.506       .  S
C1296      C1297   1.406       .  A
C1297      C1298   1.409       .  A
C1297      H1302   1.084       .  S
C1298      C1299   1.422       .  A
C1299      C1303   1.509       .  S
C1299      C1300   1.402       .  A
C1300      H1304   1.085       .  S
C1301      H1311   1.111       .  S
C1301      H1312   1.110       .  S
C1301      H1313   1.110       .  S
C1303      H1314   1.109       .  S
C1303      H1315   1.111       .  S
C1303      H1316   1.111       .  S
C1317      C1318   1.401       .  A
C1317      C1322   1.403       .  A
C1317      H1327   1.084       .  S
C1318      C1323   1.480       .  S
C1318      C1319   1.409       .  A
C1319      C1324   1.506       .  S
C1319      C1320   1.403       .  A
C1320      C1321   1.405       .  A
C1320      H1325   1.084       .  S
C1321      C1322   1.418       .  A
C1322      C1326   1.508       .  S
C1323      C1328   1.407       .  A
C1323      C1332   1.399       .  A
C1324      H1340   1.110       .  S
C1324      H1341   1.110       .  S
C1324      H1342   1.111       .  S
C1326      H1337   1.110       .  S
C1326      H1338   1.111       .  S
C1326      H1339   1.106       .  S
C1328      C1333   1.507       .  S
C1328      C1329   1.401       .  A
C1329      C1330   1.409       .  A
C1329      H1334   1.083       .  S
C1330      C1331   1.424       .  A
C1331      C1335   1.507       .  S
C1331      C1332   1.407       .  A
C1332      H1336   1.084       .  S
C1333      H1343   1.111       .  S
C1333      H1344   1.110       .  S
C1333      H1345   1.110       .  S
C1335      H1346   1.111       .  S
C1335      H1347   1.110       .  S
C1335      H1348   1.110       .  S
C1349      C1350   1.401       .  A
C1349      C1354   1.403       .  A
C1349      H1359   1.085       .  S
C1350      C1355   1.485       .  S
C1350      C1351   1.411       .  A
C1351      C1356   1.505       .  S
C1351      C1352   1.407       .  A
C1352      C1353   1.404       .  A
C1352      H1357   1.084       .  S
C1353      C1354   1.416       .  A
C1354      C1358   1.508       .  S
C1355      C1360   1.411       .  A
C1355      C1364   1.402       .  A
C1356      H1372   1.110       .  S
C1356      H1373   1.110       .  S
C1356      H1374   1.111       .  S
C1358      H1369   1.110       .  S
C1358      H1370   1.107       .  S
C1358      H1371   1.111       .  S
C1360      C1365   1.507       .  S
C1360      C1361   1.404       .  A
C1361      C1362   1.404       .  A
C1361      H1366   1.084       .  S
C1362      C1363   1.416       .  A
C1363      C1367   1.506       .  S
C1363      C1364   1.408       .  A
C1364      H1368   1.084       .  S
C1365      H1375   1.111       .  S
C1365      H1376   1.110       .  S
C1365      H1377   1.110       .  S
C1367      H1378   1.111       .  S
C1367      H1379   1.110       .  S
C1367      H1380   1.110       .  S
