geometry optimzed in LAMMPS
_audit_creation_date              2020-11-30 
_audit_creation_method            'lammps2cif' 
_symmetry_space_group_name_H-M    'P1' 
_symmetry_Int_Tables_number       1 
_symmetry_cell_setting            triclinic 
loop_ 
_symmetry_equiv_pos_as_xyz 
  x,y,z 
_cell_length_a                    63.20007699 
_cell_length_b                    63.487707869950476 
_cell_length_c                    42.3097454762992 
_cell_angle_alpha                 89.99200356035767 
_cell_angle_beta                  90.00548374420913 
_cell_angle_gamma                 121.86233864528502 
loop_ 
_atom_site_label 
_atom_site_type_symbol 
_atom_site_fract_x 
_atom_site_fract_y 
_atom_site_fract_z 
_atom_site_charge 
In1        In  0.66433203  0.46899857  0.36584475     1.36900
C2          C  0.62092586  0.42631589  0.37093134     0.80300
O3          O  0.66284289  0.48002632  0.41596944    -0.58200
O4          O  0.65500454  0.49757520  0.37907397    -0.49100
C5          C  0.70866676  0.47473305  0.37607654     0.72900
O6          O  0.68857549  0.45400621  0.37758169    -0.44000
C7          C  0.66875509  0.47625425  0.30381389     0.77600
O8          O  0.64069834  0.42956917  0.38287130    -0.55800
O9          O  0.67159242  0.49286876  0.32277466    -0.45900
O10         O  0.62316754  0.44486340  0.35687617    -0.52200
C11         C  0.65649887  0.49510114  0.40835805     0.87800
O12         O  0.70621902  0.49285172  0.37061974    -0.54100
O13         O  0.66389708  0.45624967  0.31644979    -0.57400
In14       In  0.51226938  0.31656342  0.36526525     1.36900
C15         C  0.55495593  0.35993874  0.37025815     0.80300
O16         O  0.52397705  0.31668625  0.31528039    -0.58200
O17         O  0.48720809  0.30862581  0.32295459    -0.49100
C18         C  0.50716657  0.27275259  0.37618068     0.72900
O19         O  0.52805326  0.29256304  0.37369404    -0.44000
C20         C  0.48684303  0.32531212  0.40801355     0.77600
O21         O  0.55145752  0.34060317  0.38359144    -0.55800
O22         O  0.48321533  0.32534540  0.37874878    -0.45900
O23         O  0.53673512  0.35721255  0.35461111    -0.52200
C24         C  0.50355957  0.31152812  0.30333290     0.87800
O25         O  0.48871890  0.27525708  0.37421559    -0.54100
O26         O  0.50268936  0.31989664  0.41553916    -0.57400
In27       In  0.66389576  0.46845664  0.14604578     1.36900
C28         C  0.62040156  0.42569996  0.14140546     0.80300
O29         O  0.66420370  0.45613223  0.19550422    -0.58200
O30         O  0.67077087  0.49231067  0.18902067    -0.49100
C31         C  0.70822440  0.47427936  0.13527653     0.72900
O32         O  0.68813412  0.45356060  0.13370991    -0.44000
C33         C  0.65615920  0.49457849  0.10341428     0.77600
O34         O  0.64022046  0.42877767  0.12989246    -0.55800
O35         O  0.65513422  0.49742318  0.13269460    -0.45900
O36         O  0.62263601  0.44444608  0.15488171    -0.52200
C37         C  0.66856118  0.47599414  0.20805043     0.87800
O38         O  0.70577857  0.49235201  0.14107486    -0.54100
O39         O  0.66194665  0.47907493  0.09583623    -0.57400
In40       In  0.51161258  0.31579935  0.14550574     1.36900
C41         C  0.55432786  0.35928258  0.14126454     0.80300
O42         O  0.50270853  0.31997299  0.09523603    -0.58200
O43         O  0.48210085  0.32388077  0.13191688    -0.49100
C44         C  0.50604736  0.27178243  0.13437573     0.72900
O45         O  0.52701542  0.29158243  0.13602613    -0.44000
C46         C  0.50325564  0.31108863  0.20749425     0.77600
O47         O  0.55111534  0.33997022  0.12818089    -0.55800
O48         O  0.48688911  0.30834911  0.18800780    -0.45900
O49         O  0.53578366  0.35649093  0.15618003    -0.52200
C50         C  0.48632334  0.32465293  0.10272342     0.87800
O51         O  0.48771678  0.27439182  0.13722218    -0.54100
O52         O  0.52349169  0.31584670  0.19537711    -0.57400
C53         C  0.61465466  0.54233482  0.00600430     0.89200
C54         C  0.62891422  0.54139826  0.03496822    -0.51100
C55         C  0.63168095  0.52142788  0.03469187     0.12100
C56         C  0.62008850  0.50444505  0.00586820     0.23000
C57         C  0.62902360  0.54155676  0.47707738    -0.51800
C58         C  0.63178547  0.52158929  0.47720145     0.12200
C59         C  0.58996574  0.51717998  0.00588519    -0.51300
C60         C  0.59290669  0.49744856  0.00581566     0.12800
H61         H  0.63560184  0.55481661  0.05410199     0.17300
H62         H  0.62225306  0.48816073  0.00580477     0.03000
H63         H  0.63577777  0.55507654  0.45805540     0.17600
H64         H  0.57176716  0.51514809  0.00586237     0.17400
C65         C  0.44009502  0.36800534  0.00553034     0.89200
C66         C  0.44093563  0.35377132  0.47653503    -0.51100
C67         C  0.46090935  0.35086488  0.47675580     0.12100
C68         C  0.47800076  0.36231701  0.00558798     0.23000
C69         C  0.44079323  0.35361388  0.03442466    -0.51800
C70         C  0.46075547  0.35070072  0.03425667     0.12200
C71         C  0.46543331  0.39248273  0.00566224    -0.51300
C72         C  0.48517164  0.38942903  0.00568775     0.12800
H73         H  0.42743087  0.34716795  0.45743385     0.17300
H74         H  0.49428675  0.36004726  0.00562209     0.03000
H75         H  0.42719002  0.34689019  0.05341631     0.17600
H76         H  0.46758403  0.41064484  0.00570611     0.17400
In77       In  0.66009968  0.17152580  0.36629316     1.36900
C78         C  0.61854935  0.17203863  0.37197621     0.80300
O79         O  0.66060610  0.18452373  0.31698427    -0.58200
O80         O  0.66470548  0.15361099  0.32300877    -0.49100
C81         C  0.70573422  0.21009055  0.37624776     0.72900
O82         O  0.68656611  0.21121460  0.37955348    -0.44000
C83         C  0.65140324  0.13718924  0.40906499     0.77600
O84         O  0.63907808  0.18909407  0.38288782    -0.55800
O85         O  0.64903519  0.13274894  0.37987097    -0.45900
O86         O  0.61909712  0.15457729  0.35875515    -0.52200
C87         C  0.66344212  0.16829376  0.30418334     0.87800
O88         O  0.70170584  0.18906743  0.36882795    -0.54100
O89         O  0.65875149  0.15921418  0.41646270    -0.57400
In90       In  0.65987754  0.17117447  0.14621318     1.36900
C91         C  0.61838935  0.17179089  0.14005950     0.80300
O92         O  0.65869643  0.15852314  0.09628222    -0.58200
O93         O  0.64829926  0.13212904  0.13312446    -0.49100
C94         C  0.70531497  0.20996444  0.13574579     0.72900
O95         O  0.68605467  0.21104683  0.13360202    -0.44000
C96         C  0.66351784  0.16820622  0.20834243     0.77600
O97         O  0.63878663  0.18829923  0.12822186    -0.55800
O98         O  0.66460945  0.15338410  0.18959379    -0.45900
O99         O  0.61901168  0.15478088  0.15445459    -0.52200
C100        C  0.65091631  0.13644221  0.10389943     0.87800
O101        O  0.70148571  0.18888017  0.14239424    -0.54100
O102        O  0.66080257  0.18448295  0.19545088    -0.57400
C103        C  0.61298815  0.04611096  0.00580580     0.89200
C104        C  0.62681210  0.06268983  0.47721997    -0.51100
C105        C  0.62768366  0.08464338  0.47762027     0.12100
C106        C  0.61483349  0.08800038  0.00621497     0.23000
C107        C  0.62621743  0.06213355  0.03501676    -0.51800
C108        C  0.62710643  0.08409908  0.03503990     0.12200
C109        C  0.58723378  0.04314746  0.00546277    -0.51300
C110        C  0.58832655  0.06514844  0.00566416     0.12800
H111        H  0.63466454  0.05739296  0.45825716     0.17300
H112        H  0.61555379  0.10588520  0.00637712     0.03000
H113        H  0.63376103  0.05650978  0.05399988     0.17600
H114        H  0.56976151  0.02530619  0.00504131     0.17400
In115      In  0.51125946  0.16981569  0.36515540     1.36900
C116        C  0.55407185  0.17174135  0.37056208     0.80300
O117        O  0.50088907  0.15706350  0.41548710    -0.58200
O118        O  0.48364453  0.13023079  0.37906524    -0.49100
C119        C  0.50654646  0.20846363  0.37585106     0.72900
O120        O  0.52729933  0.21016253  0.37530040    -0.44000
C121        C  0.50225923  0.16528639  0.30338418     0.77600
O122        O  0.55073428  0.18789976  0.38264621    -0.55800
O123        O  0.48559778  0.15199070  0.32325493    -0.45900
O124        O  0.53570119  0.15472938  0.35574312    -0.52200
C125        C  0.48640902  0.13462871  0.40827059     0.87800
O126        O  0.48794682  0.18686274  0.37188756    -0.54100
O127        O  0.52314949  0.18080178  0.31500142    -0.57400
In128      In  0.51099570  0.16938135  0.14594093     1.36900
C129        C  0.55397688  0.17162498  0.14081567     0.80300
O130        O  0.52314950  0.18027638  0.19604185    -0.58200
O131        O  0.48538973  0.15191324  0.18795300    -0.49100
C132        C  0.50564383  0.20762488  0.13494646     0.72900
O133        O  0.52648489  0.20949890  0.13476005    -0.44000
C134        C  0.48644929  0.13410658  0.10286698     0.77600
O135        O  0.55070439  0.18795011  0.12911511    -0.55800
O136        O  0.48368234  0.12970289  0.13207226    -0.45900
O137        O  0.53547366  0.15432889  0.15512308    -0.52200
C138        C  0.50219440  0.16504617  0.20774844     0.87800
O139        O  0.48726811  0.18604130  0.13979419    -0.54100
O140        O  0.50078028  0.15656072  0.09564444    -0.57400
C141        C  0.43741335  0.04277889  0.00521364     0.89200
C142        C  0.43976628  0.05841761  0.03423260    -0.51100
C143        C  0.46105217  0.08139427  0.03408216     0.12100
C144        C  0.47790953  0.08653896  0.00525682     0.23000
C145        C  0.43959141  0.05860285  0.47646264    -0.51800
C146        C  0.46088886  0.08159046  0.47666807     0.12200
C147        C  0.46136248  0.04222827  0.00495670    -0.51300
C148        C  0.48250185  0.06509074  0.00497281     0.12800
H149        H  0.42610353  0.05190317  0.05314207     0.17300
H150        H  0.49526551  0.10521821  0.00528384     0.03000
H151        H  0.42582417  0.05220267  0.45769155     0.17600
H152        H  0.46158732  0.02522618  0.00479554     0.17400
In153      In  0.81124049  0.46884453  0.36547279     1.36900
C154        C  0.80910668  0.42606356  0.37130015     0.80300
O155        O  0.79991385  0.45665422  0.31547048    -0.58200
O156        O  0.82977973  0.49371211  0.32320700    -0.49100
C157        C  0.77284017  0.47449536  0.37527781     0.72900
O158        O  0.77070039  0.45363336  0.37501930    -0.44000
C159        C  0.84658805  0.49419657  0.40843709     0.77600
O160        O  0.79303725  0.42957805  0.38352918    -0.55800
O161        O  0.85091967  0.49683848  0.37920790    -0.45900
O162        O  0.82618411  0.44427505  0.35637242    -0.52200
C163        C  0.81601162  0.47712702  0.30356415     0.87800
O164        O  0.79472293  0.49270277  0.37143161    -0.54100
O165        O  0.82413291  0.47943589  0.41577003    -0.57400
In166      In  0.81018582  0.32091005  0.36542292     1.36900
C167        C  0.81293719  0.31758253  0.30319992     0.80300
O168        O  0.79259383  0.27946158  0.36770856    -0.58200
O169        O  0.77066047  0.29462232  0.37989350    -0.49100
C170        C  0.84511245  0.33003437  0.40777408     0.72900
O171        O  0.84962455  0.33335629  0.37862132    -0.44000
C172        C  0.80902234  0.36192252  0.37174601     0.77600
O173        O  0.82737738  0.31560623  0.32178251    -0.55800
O174        O  0.79155245  0.34110021  0.38120694    -0.45900
O175        O  0.79718100  0.32107460  0.31628684    -0.52200
C176        C  0.77164653  0.27551115  0.37598379     0.87800
O177        O  0.82273726  0.32143609  0.41528027    -0.54100
O178        O  0.82721019  0.36192295  0.35961985    -0.57400
In179      In  0.81111295  0.46898601  0.14590927     1.36900
C180        C  0.80896758  0.42624434  0.13983918     0.80300
O181        O  0.82403872  0.48016410  0.09573357    -0.58200
O182        O  0.85092805  0.49660710  0.13233715    -0.49100
C183        C  0.77254628  0.47433244  0.13594310     0.72900
O184        O  0.77061535  0.45356252  0.13575274    -0.44000
C185        C  0.81587895  0.47719039  0.20784053     0.77600
O186        O  0.79282078  0.42974029  0.12782223    -0.53400
O187        O  0.82926576  0.49395747  0.18819072    -0.45900
O188        O  0.82612232  0.44445264  0.15467531    -0.52200
C189        C  0.84656214  0.49446346  0.10311888     0.87800
O190        O  0.79430413  0.49260589  0.14038553    -0.54100
O191        O  0.80010932  0.45658443  0.19593211    -0.57400
In192      In  0.80979421  0.32098776  0.14515643     1.36900
C193        C  0.81278620  0.31765928  0.20734211     0.80300
O194        O  0.82673750  0.36191251  0.15184792    -0.58200
O195        O  0.79156892  0.34144834  0.12896196    -0.49100
C196        C  0.84465045  0.33007738  0.10270592     0.72900
O197        O  0.84893828  0.33232418  0.13194773    -0.44000
C198        C  0.77109883  0.27557696  0.13479356     0.77600
O199        O  0.82741826  0.31609677  0.18865358    -0.55800
O200        O  0.76998191  0.29467419  0.13170425    -0.45900
O201        O  0.79673059  0.32076958  0.19438128    -0.52200
C202        C  0.80882930  0.36210840  0.13914048     0.87800
O203        O  0.82252467  0.32262979  0.09511892    -0.54100
O204        O  0.79223885  0.27955816  0.14205450    -0.57400
C205        C  0.93625712  0.37022718  0.00564341     0.89200
C206        C  0.91994943  0.35628940  0.03441819    -0.51100
C207        C  0.89746659  0.35455153  0.03410345     0.12100
C208        C  0.89336613  0.36673784  0.00539753     0.23000
C209        C  0.92020660  0.35650982  0.47660984    -0.51800
C210        C  0.89771987  0.35475787  0.47666976     0.12200
C211        C  0.93824716  0.39542286  0.00574215    -0.51300
C212        C  0.91572682  0.39347317  0.00561989     0.12800
H213        H  0.92579404  0.34898803  0.05343813     0.17300
H214        H  0.87505781  0.36531763  0.00529500     0.03000
H215        H  0.92619912  0.34930765  0.45764208     0.17600
H216        H  0.95583689  0.41315682  0.00592865     0.17400
C217        C  0.93861942  0.54347331  0.00583389     0.89200
C218        C  0.92293217  0.54142752  0.47688960    -0.51100
C219        C  0.89966044  0.52046901  0.47710884     0.12100
C220        C  0.89430536  0.50362427  0.00590688     0.23000
C221        C  0.92292104  0.54156532  0.03468991    -0.51800
C222        C  0.89965131  0.52060525  0.03454488     0.12200
C223        C  0.93867086  0.51935542  0.00597625    -0.51300
C224        C  0.91550368  0.49855303  0.00601386     0.12800
H225        H  0.92965502  0.55500285  0.45793761     0.17300
H226        H  0.87539585  0.48653750  0.00594073     0.03000
H227        H  0.92963620  0.55522249  0.05353799     0.17600
H228        H  0.95555598  0.51877538  0.00602775     0.17400
In229      In  0.48353222  0.65368676  0.36510733     1.36900
C230        C  0.44063565  0.61046106  0.36976520     0.80300
O231        O  0.47233678  0.65403161  0.31501300    -0.58200
O232        O  0.50836508  0.66020123  0.32304116    -0.49100
C233        C  0.48833295  0.69743107  0.37541839     0.72900
O234        O  0.46755834  0.67742990  0.37389766    -0.44000
C235        C  0.50889767  0.64528155  0.40831132     0.77600
O236        O  0.44408430  0.62993262  0.38257772    -0.55800
O237        O  0.51317205  0.64591121  0.37916419    -0.45900
O238        O  0.45905092  0.61293413  0.35486738    -0.52200
C239        C  0.49243100  0.65807604  0.30326965     0.87800
O240        O  0.50692408  0.69520581  0.37281051    -0.54100
O241        O  0.49248724  0.64998059  0.41556010    -0.57400
In242      In  0.33100472  0.50152416  0.36590060     1.36900
C243        C  0.37438126  0.54435310  0.37044352     0.80300
O244        O  0.33250512  0.49050103  0.41614169    -0.58200
O245        O  0.33960885  0.47243150  0.37926130    -0.49100
C246        C  0.28669109  0.49573538  0.37656344     0.72900
O247        O  0.30688695  0.51601466  0.38076060    -0.44000
C248        C  0.32724489  0.49465718  0.30372447     0.77600
O249        O  0.35430961  0.54166624  0.38034182    -0.55800
O250        O  0.32487612  0.47818681  0.32259557    -0.45900
O251        O  0.37244121  0.52520275  0.35870044    -0.52200
C252        C  0.33841651  0.47509668  0.40854042     0.87800
O253        O  0.28897706  0.47798996  0.36817101    -0.54100
O254        O  0.33120690  0.51430067  0.31651470    -0.57400
In255      In  0.48404330  0.65411288  0.14574026     1.36900
C256        C  0.44116430  0.61091654  0.14115597     0.80300
O257        O  0.49341268  0.65077997  0.09536500    -0.58200
O258        O  0.51346718  0.64595749  0.13194382    -0.49100
C259        C  0.48868549  0.69780008  0.13555617     0.72900
O260        O  0.46793246  0.67778138  0.13723259    -0.44000
C261        C  0.49276218  0.65839956  0.20758577     0.77600
O262        O  0.44477411  0.63024438  0.12770806    -0.55800
O263        O  0.50892170  0.66095586  0.18788159    -0.45900
O264        O  0.45944898  0.61349424  0.15648591    -0.52200
C265        C  0.50955314  0.64573656  0.10274287     0.87800
O266        O  0.50731091  0.69561587  0.13799681    -0.54100
O267        O  0.47259232  0.65406947  0.19575369    -0.57400
In268      In  0.33155330  0.50206422  0.14570472     1.36900
C269        C  0.37486787  0.54490246  0.14129960     0.80300
O270        O  0.33149820  0.51462391  0.19516233    -0.58200
O271        O  0.32549275  0.47865768  0.18891280    -0.49100
C272        C  0.28729328  0.49630445  0.13475817     0.72900
O273        O  0.30748650  0.51666710  0.13109010    -0.44000
C274        C  0.33905944  0.47571613  0.10303185     0.77600
O275        O  0.35483115  0.54213862  0.13113052    -0.55800
O276        O  0.33946033  0.47248137  0.13230755    -0.45900
O277        O  0.37292144  0.52583326  0.15335604    -0.52200
C278        C  0.32761402  0.49497514  0.20785798     0.87800
O279        O  0.28956100  0.47848246  0.14278667    -0.54100
O280        O  0.33396495  0.49172075  0.09541880    -0.57400
C281        C  0.55497818  0.60177518  0.00543976     0.89200
C282        C  0.55413020  0.61598151  0.47643212    -0.51100
C283        C  0.53427148  0.61905583  0.47678546     0.12100
C284        C  0.51725665  0.60773545  0.00569536     0.23000
C285        C  0.55450300  0.61630406  0.03429807    -0.51800
C286        C  0.53464410  0.61936960  0.03422225     0.12200
C287        C  0.52957707  0.57737227  0.00575656    -0.51300
C288        C  0.50993116  0.58057418  0.00588882     0.12800
H289        H  0.56760287  0.62254137  0.45729576     0.17300
H290        H  0.50105212  0.61013550  0.00581099     0.03000
H291        H  0.56820470  0.62305189  0.05317633     0.17600
H292        H  0.52731885  0.55916390  0.00584346     0.17400
C293        C  0.38062726  0.42781674  0.00577489     0.89200
C294        C  0.36634222  0.42869752  0.03477180    -0.51100
C295        C  0.36349274  0.44862572  0.03452641     0.12100
C296        C  0.37503440  0.46561975  0.00571473     0.23000
C297        C  0.36621025  0.42857798  0.47685796    -0.51800
C298        C  0.36335347  0.44849710  0.47703665     0.12200
C299        C  0.40526322  0.45301476  0.00566938    -0.51300
C300        C  0.40223407  0.47269084  0.00565528     0.12800
H301        H  0.35970693  0.41527864  0.05390373     0.17300
H302        H  0.37281689  0.48187188  0.00568924     0.03000
H303        H  0.35946402  0.41506594  0.45783327     0.17600
H304        H  0.42349334  0.45511709  0.00567768     0.17400
In305      In  0.33524645  0.79883292  0.36631808     1.36900
C306        C  0.33230022  0.80212101  0.30413167     0.80300
O307        O  0.37605131  0.81501139  0.35822552    -0.58200
O308        O  0.35619771  0.78165738  0.38477916    -0.49100
C309        C  0.34418307  0.83340571  0.40875566     0.72900
O310        O  0.34683350  0.83782042  0.37955717    -0.44000
C311        C  0.28960697  0.76028294  0.37621888     0.77600
O312        O  0.33095994  0.81682899  0.32283687    -0.55800
O313        O  0.30873782  0.75901029  0.37875298    -0.45900
O314        O  0.33488814  0.78578521  0.31710646    -0.52200
C315        C  0.37661596  0.79805319  0.37283908     0.87800
O316        O  0.33630831  0.81129230  0.41627607    -0.54100
O317        O  0.29365549  0.78141386  0.36936413    -0.57400
In318      In  0.48388379  0.80034863  0.36485950     1.36900
C319        C  0.44098665  0.79817969  0.37114532     0.80300
O320        O  0.49531184  0.81301808  0.41495263    -0.58200
O321        O  0.51078678  0.84013170  0.37861427    -0.49100
C322        C  0.48823568  0.76138599  0.37470939     0.72900
O323        O  0.46749210  0.75969392  0.37343390    -0.44000
C324        C  0.49356064  0.80552803  0.30334662     0.77600
O325        O  0.44497133  0.78278826  0.38429728    -0.55800
O326        O  0.51023458  0.81800689  0.32358281    -0.45900
O327        O  0.45873763  0.81451377  0.35480105    -0.52200
C328        C  0.50900457  0.83556503  0.40776803     0.87800
O329        O  0.50691280  0.78305592  0.37173359    -0.54100
O330        O  0.47230459  0.79053165  0.31447665    -0.57400
In331      In  0.33514288  0.79848835  0.14595313     1.36900
C332        C  0.37646685  0.79761654  0.13954854     0.80300
O333        O  0.33642158  0.81092513  0.09587933    -0.58200
O334        O  0.34661547  0.83741161  0.13256038    -0.49100
C335        C  0.28946165  0.76010709  0.13546691     0.72900
O336        O  0.30860949  0.75896945  0.13205761    -0.44000
C337        C  0.33235485  0.80196599  0.20819941     0.77600
O338        O  0.35565126  0.78025211  0.12978043    -0.55800
O339        O  0.33064282  0.81638579  0.18939275    -0.45900
O340        O  0.37628700  0.81551235  0.15202667    -0.52200
C341        C  0.34415234  0.83301966  0.10335840     0.87800
O342        O  0.29351378  0.78103889  0.14345558    -0.54100
O343        O  0.33527915  0.78581990  0.19532127    -0.57400
In344      In  0.48414075  0.80062574  0.14636172     1.36900
C345        C  0.44113160  0.79827983  0.14048930     0.80300
O346        O  0.47251540  0.79057603  0.19671566    -0.58200
O347        O  0.51035560  0.81832399  0.18779363    -0.49100
C348        C  0.48859803  0.76176013  0.13618765     0.72900
O349        O  0.46784814  0.76003749  0.13750140    -0.44000
C350        C  0.50923591  0.83581469  0.10335276     0.77600
O351        O  0.44481703  0.78241109  0.12821045    -0.55800
O352        O  0.51139773  0.84032283  0.13253461    -0.45900
O353        O  0.45928895  0.81526961  0.15563542    -0.52200
C354        C  0.49369068  0.80566758  0.20795138     0.87800
O355        O  0.50725663  0.78343920  0.13919864    -0.54100
O356        O  0.49511520  0.81331976  0.09615070    -0.57400
C357        C  0.38335616  0.92400846  0.00628796     0.89200
C358        C  0.36974769  0.90779075  0.47739669    -0.51100
C359        C  0.36874134  0.88578715  0.47748906     0.12100
C360        C  0.38127696  0.88201464  0.00611209     0.23000
C361        C  0.36981566  0.90770776  0.03516705    -0.51800
C362        C  0.36880509  0.88569190  0.03488198     0.12200
C363        C  0.40907452  0.92685931  0.00618943    -0.51300
C364        C  0.40784619  0.90477808  0.00609764     0.12800
H365        H  0.36203274  0.91331538  0.45850982     0.17300
H366        H  0.38042786  0.86406605  0.00602529     0.03000
H367        H  0.36212630  0.91317053  0.05414959     0.17600
H368        H  0.42659421  0.94466059  0.00617325     0.17400
C369        C  0.55833080  0.92691004  0.00527357     0.89200
C370        C  0.55636451  0.91135447  0.03423518    -0.51100
C371        C  0.53523745  0.88824057  0.03421903     0.12100
C372        C  0.51816617  0.88288299  0.00557015     0.23000
C373        C  0.55617878  0.91117355  0.47644902    -0.51800
C374        C  0.53505739  0.88806508  0.47677558     0.12200
C375        C  0.53417381  0.92708048  0.00535015    -0.51300
C376        C  0.51321158  0.90408102  0.00550973     0.12800
H377        H  0.57009281  0.91806133  0.05307816     0.17300
H378        H  0.50094732  0.86409997  0.00569040     0.03000
H379        H  0.56977733  0.91776065  0.45745961     0.17600
H380        H  0.53368358  0.94393932  0.00528587     0.17400
In381      In  0.18417723  0.50147961  0.36541762     1.36900
C382        C  0.18592789  0.54403196  0.37052061     0.80300
O383        O  0.19602133  0.51389889  0.31557961    -0.58200
O384        O  0.16640770  0.47664865  0.32295356    -0.49100
C385        C  0.22257249  0.49605018  0.37597599     0.72900
O386        O  0.22443261  0.51678550  0.37692725    -0.44000
C387        C  0.14869812  0.47641819  0.40840732     0.77600
O388        O  0.20229615  0.54089882  0.38261075    -0.55800
O389        O  0.14430519  0.47409731  0.37918553    -0.45900
O390        O  0.16882727  0.52559937  0.35594648    -0.52200
C391        C  0.18023501  0.49337633  0.30348128     0.87800
O392        O  0.20093214  0.47783938  0.37065332    -0.54100
O393        O  0.17126690  0.49058649  0.41568482    -0.57400
In394      In  0.18450797  0.50152838  0.14578500     1.36900
C395        C  0.18634417  0.54410206  0.14036289     0.80300
O396        O  0.17124974  0.49066536  0.09565784    -0.58200
O397        O  0.14455580  0.47403563  0.13243389    -0.49100
C398        C  0.22311322  0.49642913  0.13525410     0.72900
O399        O  0.22498446  0.51717401  0.13535664    -0.44000
C400        C  0.18040756  0.49332813  0.20769927     0.77600
O401        O  0.20217907  0.54059009  0.12737574    -0.55800
O402        O  0.16700575  0.47646053  0.18815036    -0.45900
O403        O  0.16972564  0.52602589  0.15595878    -0.52200
C404        C  0.14875120  0.47639812  0.10316512     0.87800
O405        O  0.20138769  0.47806831  0.13958178    -0.54100
O406        O  0.19587786  0.51400279  0.19568038    -0.57400
C407        C  0.05656401  0.42684929  0.00582934     0.89200
C408        C  0.07240311  0.42915283  0.47692270    -0.51100
C409        C  0.09551325  0.45034591  0.47712977     0.12100
C410        C  0.10057292  0.46713853  0.00591523     0.23000
C411        C  0.07237169  0.42905574  0.03472454    -0.51800
C412        C  0.09547559  0.45025336  0.03461119     0.12200
C413        C  0.05607351  0.45074035  0.00590161    -0.51300
C414        C  0.07907253  0.47177139  0.00594710     0.12800
H415        H  0.06589518  0.41556122  0.45801019     0.17300
H416        H  0.11934401  0.48440667  0.00595397     0.03000
H417        H  0.06584061  0.41540918  0.05357686     0.17600
H418        H  0.03901372  0.45100234  0.00590056     0.17400
In419      In  0.18538612  0.64943189  0.36599467     1.36900
C420        C  0.18315092  0.65191522  0.30351120     0.80300
O421        O  0.20300736  0.69089755  0.36757094    -0.58200
O422        O  0.22455406  0.67582635  0.38192077    -0.49100
C423        C  0.15051861  0.64096137  0.40808742     0.72900
O424        O  0.14710513  0.64111346  0.37880326    -0.44000
C425        C  0.18576872  0.60801038  0.37157836     0.77600
O426        O  0.16739932  0.65220388  0.32146793    -0.55800
O427        O  0.20337196  0.62861007  0.38140896    -0.45900
O428        O  0.19999901  0.65054490  0.31735659    -0.52200
C429        C  0.22373207  0.69490991  0.37693802     0.87800
O430        O  0.17182830  0.64577642  0.41593712    -0.54100
O431        O  0.16775018  0.60839253  0.35954547    -0.57400
In432      In  0.18520971  0.64919745  0.14489501     1.36900
C433        C  0.18300764  0.65179154  0.20735740     0.80300
O434        O  0.16777040  0.60814118  0.15092572    -0.58200
O435        O  0.20363811  0.62872339  0.12977028    -0.49100
C436        C  0.15037530  0.64052937  0.10259773     0.72900
O437        O  0.14640646  0.63925850  0.13189047    -0.44000
C438        C  0.22352724  0.69475801  0.13427070     0.77600
O439        O  0.16775160  0.65293699  0.18935235    -0.55800
O440        O  0.22421430  0.67569306  0.12848354    -0.45900
O441        O  0.19931287  0.64949965  0.19356615    -0.52200
C442        C  0.18600666  0.60799034  0.13921605     0.87800
O443        O  0.17217681  0.64684449  0.09489296    -0.54100
O444        O  0.20293326  0.69069528  0.14429622    -0.57400
C445        C  0.05904758  0.60058626  0.00526639     0.89200
C446        C  0.07523600  0.61439816  0.03414749    -0.51100
C447        C  0.09774716  0.61621618  0.03385725     0.12100
C448        C  0.10198496  0.60420297  0.00505612     0.23000
C449        C  0.07513376  0.61449096  0.47635673    -0.51800
C450        C  0.09764987  0.61631734  0.47643316     0.12200
C451        C  0.05712847  0.57543193  0.00515300    -0.51300
C452        C  0.07965960  0.57742076  0.00505977     0.12800
H453        H  0.06929996  0.62157270  0.05321462     0.17300
H454        H  0.12032315  0.60568898  0.00497176     0.03000
H455        H  0.06915044  0.62176383  0.45746055     0.17600
H456        H  0.03955776  0.55767694  0.00523840     0.17400
C457        C  0.11557988  0.62697579  0.05921730    -0.10600
C458        C  0.13125524  0.63419321  0.07955842    -0.12200
C459        C  0.18191442  0.65271514  0.24118282    -0.10600
C460        C  0.18197869  0.65274742  0.26968473    -0.12200
C461        C  0.11548440  0.62730152  0.45111126    -0.10600
C462        C  0.13126812  0.63464808  0.43090416    -0.12200
C463        C  0.08239330  0.49605066  0.00594254    -0.15800
C464        C  0.08348816  0.51559684  0.00581061     0.08200
C465        C  0.08327906  0.53773428  0.00552236     0.10100
C466        C  0.08208565  0.55607434  0.00525564    -0.16700
C467        C  0.18684722  0.58587494  0.13758189    -0.10600
C468        C  0.18710803  0.56703077  0.13795603    -0.12200
C469        C  0.12924954  0.46467397  0.07996491    -0.10600
C470        C  0.11340126  0.45696317  0.05973573    -0.12200
C471        C  0.17820056  0.48978081  0.26984611    -0.10600
C472        C  0.17824683  0.48974134  0.24133408    -0.12200
C473        C  0.11349112  0.45709741  0.45204933    -0.10600
C474        C  0.12932023  0.46477562  0.43179000    -0.12200
C475        C  0.18664382  0.56693646  0.37279596    -0.10600
C476        C  0.18642797  0.58580070  0.37315794    -0.12200
C477        C  0.42962525  0.90295252  0.00595072    -0.15800
C478        C  0.44777886  0.90132027  0.00582939     0.08200
C479        C  0.46944857  0.90011809  0.00570528     0.10100
C480        C  0.48878552  0.90063633  0.00561343    -0.16700
C481        C  0.52100971  0.85497965  0.07989814    -0.10600
C482        C  0.52869147  0.87058052  0.05947997    -0.12200
C483        C  0.35072687  0.85199619  0.08018307    -0.10600
C484        C  0.35808559  0.86771794  0.05999460    -0.12200
C485        C  0.39873805  0.79691489  0.13748694    -0.10600
C486        C  0.41788997  0.79707647  0.13786351    -0.12200
C487        C  0.26486829  0.73868871  0.13186466    -0.10600
C488        C  0.24518982  0.71921929  0.13141140    -0.12200
C489        C  0.49795511  0.80810479  0.26990245    -0.10600
C490        C  0.49799917  0.80815229  0.24141418    -0.12200
C491        C  0.52070669  0.85469990  0.43124023    -0.10600
C492        C  0.52837187  0.87029310  0.45164910    -0.12200
C493        C  0.33131438  0.80380625  0.27040432    -0.10600
C494        C  0.33134487  0.80374430  0.24191219    -0.12200
C495        C  0.35071681  0.85235630  0.43192412    -0.10600
C496        C  0.35804058  0.86796126  0.45224192    -0.12200
C497        C  0.39883103  0.79723923  0.37481458    -0.10600
C498        C  0.41787682  0.79720241  0.37417426    -0.12200
C499        C  0.26502854  0.73883145  0.37961101    -0.10600
C500        C  0.24536912  0.71935383  0.37994246    -0.12200
C501        C  0.42301753  0.49789668  0.00579294    -0.15800
C502        C  0.44139549  0.51840473  0.00595898     0.08200
C503        C  0.46414716  0.54140126  0.00609162     0.10100
C504        C  0.48458140  0.55993233  0.00607642    -0.16700
C505        C  0.24447423  0.49416641  0.13182837    -0.10600
C506        C  0.26353275  0.49407750  0.13163763    -0.12200
C507        C  0.34515675  0.46301664  0.08004256    -0.10600
C508        C  0.35242014  0.45476732  0.05997420    -0.12200
C509        C  0.49068875  0.72135865  0.13255182    -0.10600
C510        C  0.49060715  0.74033677  0.13279033    -0.12200
C511        C  0.52915078  0.63105633  0.05948011    -0.10600
C512        C  0.52159308  0.63895752  0.07960370    -0.12200
C513        C  0.39817285  0.56817045  0.13977685    -0.10600
C514        C  0.41779673  0.58771299  0.13968941    -0.12200
C515        C  0.32598990  0.49171635  0.27002410    -0.10600
C516        C  0.32612176  0.49183300  0.24153316    -0.12200
C517        C  0.24388256  0.49367556  0.37932758    -0.10600
C518        C  0.26292005  0.49353356  0.37953658    -0.12200
C519        C  0.35206350  0.45444788  0.45166077    -0.10600
C520        C  0.34462003  0.46251511  0.43157921    -0.12200
C521        C  0.49636068  0.65968284  0.26969805    -0.10600
C522        C  0.49649460  0.65980397  0.24118713    -0.12200
C523        C  0.49037000  0.72100557  0.37839103    -0.10600
C524        C  0.49024156  0.73995847  0.37809663    -0.12200
C525        C  0.52087424  0.63844924  0.43149628    -0.10600
C526        C  0.52851194  0.63057647  0.45156735    -0.12200
C527        C  0.39770233  0.56763936  0.37177803    -0.10600
C528        C  0.41731632  0.58720465  0.37153410    -0.12200
C529        C  0.96418114  0.56516555  0.00578479    -0.15800
C530        C  0.98647128  0.57930835  0.00569913     0.08200
C531        C  0.01269818  0.59128325  0.00555309     0.10100
C532        C  0.03436814  0.59762681  0.00541218    -0.16700
C533        C  0.96092204  0.37307500  0.00576493    -0.15800
C534        C  0.98254341  0.37917767  0.00579942     0.08200
C535        C  0.00877262  0.39085813  0.00579551     0.10100
C536        C  0.03109372  0.40493507  0.00579283    -0.16700
C537        C  0.91323244  0.41476140  0.00579469    -0.15800
C538        C  0.91161128  0.43284382  0.00594543     0.08200
C539        C  0.91086520  0.45467371  0.00606579     0.10100
C540        C  0.91181890  0.47414041  0.00608659    -0.16700
C541        C  0.86375875  0.33651370  0.07959602    -0.10600
C542        C  0.87952670  0.34375285  0.05936262    -0.12200
C543        C  0.86594287  0.50640441  0.07984574    -0.10600
C544        C  0.88177838  0.51414054  0.05962731    -0.12200
C545        C  0.80790936  0.40316412  0.13735205    -0.10600
C546        C  0.80798507  0.38421593  0.13714996    -0.12200
C547        C  0.81429559  0.31637961  0.24102479    -0.10600
C548        C  0.81433839  0.31634723  0.26949697    -0.12200
C549        C  0.86421847  0.33660204  0.43093076    -0.10600
C550        C  0.87992268  0.34395039  0.45125919    -0.12200
C551        C  0.81830528  0.48084260  0.24145128    -0.10600
C552        C  0.81836038  0.48082572  0.26995879    -0.12200
C553        C  0.88178221  0.51390712  0.45199037    -0.10600
C554        C  0.86595181  0.50613257  0.43175154    -0.12200
C555        C  0.80805136  0.40296551  0.37368552    -0.10600
C556        C  0.80812102  0.38400612  0.37383560    -0.12200
C557        C  0.38524068  0.94807375  0.00628749    -0.15800
C558        C  0.39051215  0.96930600  0.00601904     0.08200
C559        C  0.40153312  0.99527551  0.00557851     0.10100
C560        C  0.41542723  0.01749326  0.00528082    -0.16700
C561        C  0.47510758  0.11487560  0.07945203    -0.10600
C562        C  0.46768143  0.09921332  0.05914361    -0.12200
C563        C  0.49825088  0.16296646  0.26982663    -0.10600
C564        C  0.49824153  0.16289189  0.24131775    -0.12200
C565        C  0.46744991  0.09958643  0.45183067    -0.10600
C566        C  0.47493857  0.11537810  0.43167010    -0.12200
C567        C  0.61103120  0.02198867  0.00553511    -0.15800
C568        C  0.60539918  0.00062759  0.00529426     0.08200
C569        C  0.59403867  0.97458471  0.00511142     0.10100
C570        C  0.58012695  0.95234880  0.00510992    -0.16700
C571        C  0.56642709  0.06675235  0.00524952    -0.15800
C572        C  0.54805263  0.06799953  0.00496194     0.08200
C573        C  0.52616250  0.06880306  0.00479464     0.10100
C574        C  0.50679464  0.06822246  0.00481179    -0.16700
C575        C  0.57711375  0.17260533  0.13840994    -0.10600
C576        C  0.59614004  0.17253305  0.13809099    -0.12200
C577        C  0.64453560  0.11743045  0.08081188    -0.10600
C578        C  0.63746523  0.10181388  0.06050160    -0.12200
C579        C  0.72980511  0.23157277  0.13223136    -0.10600
C580        C  0.74941901  0.25111865  0.13187985    -0.12200
C581        C  0.66480285  0.16664215  0.24203096    -0.10600
C582        C  0.66475646  0.16666667  0.27051126    -0.12200
C583        C  0.63822109  0.10266021  0.45252187    -0.10600
C584        C  0.64522909  0.11833828  0.43230902    -0.12200
C585        C  0.57715362  0.17263498  0.37311896    -0.10600
C586        C  0.59622220  0.17265113  0.37365163    -0.12200
C587        C  0.73032558  0.23160283  0.37926555    -0.10600
C588        C  0.74999879  0.25107934  0.37919768    -0.12200
C589        C  0.41948008  0.37260846  0.00553438    -0.15800
C590        C  0.40567913  0.38046419  0.00561260     0.08200
C591        C  0.39290594  0.39336862  0.00572010     0.10100
C592        C  0.38515835  0.40722893  0.00578228    -0.16700
C593        C  0.61022559  0.56295958  0.00600843    -0.15800
C594        C  0.60242542  0.57675716  0.00582542     0.08200
C595        C  0.58946839  0.58944710  0.00553621     0.10100
C596        C  0.57554295  0.59713554  0.00537458    -0.16700
C597        C  0.57205331  0.47226299  0.00573053    -0.15800
C598        C  0.55363862  0.45176900  0.00570239     0.08200
C599        C  0.53088421  0.42875583  0.00571027     0.10100
C600        C  0.51047848  0.41017459  0.00571924    -0.16700
C601        C  0.50349732  0.24798063  0.13109677    -0.10600
C602        C  0.50335676  0.22887938  0.13133084    -0.12200
C603        C  0.46653300  0.33927822  0.05959334    -0.10600
C604        C  0.47425324  0.33151171  0.07970320    -0.12200
C605        C  0.65001264  0.50715198  0.08032413    -0.10600
C606        C  0.64273801  0.51529147  0.06013915    -0.12200
C607        C  0.57753367  0.38271774  0.13981927    -0.10600
C608        C  0.59705922  0.40239846  0.13987702    -0.12200
C609        C  0.73210420  0.47670274  0.13230435    -0.10600
C610        C  0.75121527  0.47668994  0.13259818    -0.12200
C611        C  0.49965992  0.30948925  0.24116408    -0.10600
C612        C  0.49974310  0.30962815  0.26969689    -0.12200
C613        C  0.50455516  0.22989342  0.37933986    -0.10600
C614        C  0.50477413  0.24903091  0.37948976    -0.12200
C615        C  0.47470972  0.33205961  0.43111456    -0.10600
C616        C  0.46687431  0.33965820  0.45131140    -0.12200
C617        C  0.67040796  0.47940374  0.27015974    -0.10600
C618        C  0.67034257  0.47931067  0.24167970    -0.12200
C619        C  0.65025410  0.50758296  0.43145160    -0.10600
C620        C  0.64291038  0.51559902  0.45170094    -0.12200
C621        C  0.59763316  0.40300747  0.37248467    -0.10600
C622        C  0.57812588  0.38333376  0.37224158    -0.12200
C623        C  0.73254436  0.47712560  0.37882430    -0.10600
C624        C  0.75161079  0.47703031  0.37850518    -0.12200
In625      In  0.66433210  0.46899859  0.86584482     1.36900
C626        C  0.62092593  0.42631587  0.87093124     0.80300
O627        O  0.66284295  0.48002638  0.91596951    -0.58200
O628        O  0.65500463  0.49757523  0.87907410    -0.49100
C629        C  0.70866682  0.47473307  0.87607650     0.72900
O630        O  0.68857561  0.45400624  0.87758173    -0.44000
C631        C  0.66875508  0.47625431  0.80381399     0.77600
O632        O  0.64069835  0.42956916  0.88287134    -0.55800
O633        O  0.67159254  0.49286886  0.82277485    -0.45900
O634        O  0.62316764  0.44486345  0.85687621    -0.52200
C635        C  0.65649895  0.49510119  0.90835813     0.87800
O636        O  0.70621908  0.49285175  0.87061970    -0.54100
O637        O  0.66389705  0.45624972  0.81644988    -0.57400
In638      In  0.51226946  0.31656344  0.86526524     1.36900
C639        C  0.55495597  0.35993875  0.87025826     0.80300
O640        O  0.52397714  0.31668627  0.81528033    -0.58200
O641        O  0.48720820  0.30862586  0.82295454    -0.49100
C642        C  0.50716660  0.27275262  0.87618083     0.72900
O643        O  0.52805333  0.29256303  0.87369409    -0.44000
C644        C  0.48684306  0.32531212  0.90801347     0.77600
O645        O  0.55145763  0.34060313  0.88359140    -0.55800
O646        O  0.48321526  0.32534529  0.87874869    -0.45900
O647        O  0.53673518  0.35721260  0.85461121    -0.52200
C648        C  0.50355966  0.31152815  0.80333284     0.87800
O649        O  0.48871891  0.27525711  0.87421561    -0.54100
O650        O  0.50268942  0.31989671  0.91553912    -0.57400
In651      In  0.66389580  0.46845666  0.64604579     1.36900
C652        C  0.62040156  0.42569998  0.64140558     0.80300
O653        O  0.66420382  0.45613224  0.69550430    -0.58200
O654        O  0.67077075  0.49231062  0.68902070    -0.49100
C655        C  0.70822445  0.47427940  0.63527647     0.72900
O656        O  0.68813416  0.45356064  0.63370986    -0.44000
C657        C  0.65615931  0.49457856  0.60341425     0.77600
O658        O  0.64022044  0.42877770  0.62989252    -0.55800
O659        O  0.65513424  0.49742318  0.63269457    -0.45900
O660        O  0.62263602  0.44444610  0.65488175    -0.52200
C661        C  0.66856115  0.47599410  0.70805044     0.87800
O662        O  0.70577861  0.49235205  0.64107483    -0.54100
O663        O  0.66194663  0.47907492  0.59583617    -0.57400
In664      In  0.51161262  0.31579934  0.64550571     1.36900
C665        C  0.55432785  0.35928263  0.64126440     0.80300
O666        O  0.50270855  0.31997308  0.59523598    -0.58200
O667        O  0.48210090  0.32388077  0.63191697    -0.49100
C668        C  0.50604732  0.27178239  0.63437569     0.72900
O669        O  0.52701543  0.29158236  0.63602606    -0.44000
C670        C  0.50325561  0.31108861  0.70749419     0.77600
O671        O  0.55111537  0.33997022  0.62818097    -0.55800
O672        O  0.48688906  0.30834910  0.68800770    -0.45900
O673        O  0.53578368  0.35649092  0.65617998    -0.52200
C674        C  0.48632335  0.32465295  0.60272345     0.87800
O675        O  0.48771671  0.27439178  0.63722211    -0.54100
O676        O  0.52349172  0.31584673  0.69537714    -0.57400
C677        C  0.61465470  0.54233479  0.50600424     0.89200
C678        C  0.62891421  0.54139820  0.53496820    -0.51100
C679        C  0.63168090  0.52142778  0.53469181     0.12100
C680        C  0.62008845  0.50444500  0.50586812     0.23000
C681        C  0.62902360  0.54155675  0.97707747    -0.51800
C682        C  0.63178542  0.52158925  0.97720147     0.12200
C683        C  0.58996582  0.51717998  0.50588521    -0.51300
C684        C  0.59290667  0.49744850  0.50581567     0.12800
H685        H  0.63560188  0.55481640  0.55410145     0.17300
H686        H  0.62225301  0.48816066  0.50580482     0.03000
H687        H  0.63577778  0.55507652  0.95805537     0.17600
H688        H  0.57176732  0.51514824  0.50586202     0.17400
C689        C  0.44009503  0.36800535  0.50553031     0.89200
C690        C  0.44093568  0.35377134  0.97653500    -0.51100
C691        C  0.46090940  0.35086491  0.97675585     0.12100
C692        C  0.47800072  0.36231694  0.50558789     0.23000
C693        C  0.44079329  0.35361395  0.53442464    -0.51800
C694        C  0.46075554  0.35070072  0.53425663     0.12200
C695        C  0.46543332  0.39248270  0.50566219    -0.51300
C696        C  0.48517167  0.38942896  0.50568768     0.12800
H697        H  0.42743117  0.34716803  0.95743399     0.17300
H698        H  0.49428701  0.36004715  0.50562182     0.03000
H699        H  0.42719008  0.34689027  0.55341595     0.17600
H700        H  0.46758409  0.41064468  0.50570603     0.17400
In701      In  0.66009960  0.17152574  0.86629323     1.36900
C702        C  0.61854933  0.17203861  0.87197616     0.80300
O703        O  0.66060607  0.18452365  0.81698442    -0.58200
O704        O  0.66470535  0.15361091  0.82300881    -0.49100
C705        C  0.70573414  0.21009056  0.87624780     0.72900
O706        O  0.68656601  0.21121458  0.87955342    -0.44000
C707        C  0.65140334  0.13718930  0.90906511     0.77600
O708        O  0.63907805  0.18909401  0.88288782    -0.55800
O709        O  0.64903516  0.13274895  0.87987110    -0.45900
O710        O  0.61909706  0.15457722  0.85875525    -0.52200
C711        C  0.66344208  0.16829371  0.80418342     0.87800
O712        O  0.70170574  0.18906742  0.86882808    -0.54100
O713        O  0.65875146  0.15921422  0.91646282    -0.57400
In714      In  0.65987758  0.17117445  0.64621326     1.36900
C715        C  0.61838941  0.17179087  0.64005942     0.80300
O716        O  0.65869651  0.15852315  0.59628236    -0.58200
O717        O  0.64829930  0.13212904  0.63312448    -0.49100
C718        C  0.70531494  0.20996444  0.63574594     0.72900
O719        O  0.68605457  0.21104679  0.63360218    -0.44000
C720        C  0.66351789  0.16820622  0.70834246     0.77600
O721        O  0.63878679  0.18829924  0.62822193    -0.55800
O722        O  0.66460951  0.15338407  0.68959387    -0.45900
O723        O  0.61901170  0.15478088  0.65445463    -0.52200
C724        C  0.65091631  0.13644219  0.60389945     0.87800
O725        O  0.70148574  0.18888014  0.64239418    -0.54100
O726        O  0.66080262  0.18448297  0.69545086    -0.57400
C727        C  0.61298807  0.04611089  0.50580582     0.89200
C728        C  0.62681214  0.06268992  0.97721986    -0.51100
C729        C  0.62768363  0.08464342  0.97762030     0.12100
C730        C  0.61483349  0.08800038  0.50621490     0.23000
C731        C  0.62621738  0.06213351  0.53501682    -0.51800
C732        C  0.62710632  0.08409904  0.53503988     0.12200
C733        C  0.58723375  0.04314746  0.50546274    -0.51300
C734        C  0.58832658  0.06514845  0.50566416     0.12800
H735        H  0.63466456  0.05739329  0.95825714     0.17300
H736        H  0.61555376  0.10588521  0.50637681     0.03000
H737        H  0.63376053  0.05650967  0.55399996     0.17600
H738        H  0.56976127  0.02530613  0.50504175     0.17400
In739      In  0.51125948  0.16981571  0.86515537     1.36900
C740        C  0.55407186  0.17174134  0.87056203     0.80300
O741        O  0.50088915  0.15706352  0.91548706    -0.58200
O742        O  0.48364449  0.13023084  0.87906521    -0.49100
C743        C  0.50654640  0.20846361  0.87585110     0.72900
O744        O  0.52729925  0.21016247  0.87530046    -0.44000
C745        C  0.50225915  0.16528632  0.80338416     0.77600
O746        O  0.55073436  0.18789979  0.88264614    -0.55800
O747        O  0.48559767  0.15199069  0.82325503    -0.45900
O748        O  0.53570115  0.15472938  0.85574303    -0.52200
C749        C  0.48640909  0.13462873  0.90827055     0.87800
O750        O  0.48794683  0.18686276  0.87188746    -0.54100
O751        O  0.52314945  0.18080175  0.81500126    -0.57400
In752      In  0.51099576  0.16938138  0.64594093     1.36900
C753        C  0.55397688  0.17162494  0.64081572     0.80300
O754        O  0.52314951  0.18027636  0.69604187    -0.58200
O755        O  0.48538977  0.15191335  0.68795291    -0.49100
C756        C  0.50564391  0.20762492  0.63494659     0.72900
O757        O  0.52648500  0.20949898  0.63476014    -0.44000
C758        C  0.48644938  0.13410664  0.60286694     0.77600
O759        O  0.55070446  0.18795016  0.62911532    -0.55800
O760        O  0.48368230  0.12970297  0.63207221    -0.45900
O761        O  0.53547365  0.15432881  0.65512303    -0.52200
C762        C  0.50219440  0.16504620  0.70774842     0.87800
O763        O  0.48726820  0.18604130  0.63979408    -0.54100
O764        O  0.50078039  0.15656078  0.59564440    -0.57400
C765        C  0.43741334  0.04277883  0.50521368     0.89200
C766        C  0.43976625  0.05841758  0.53423263    -0.51100
C767        C  0.46105213  0.08139420  0.53408222     0.12100
C768        C  0.47790947  0.08653892  0.50525686     0.23000
C769        C  0.43959140  0.05860290  0.97646262    -0.51800
C770        C  0.46088888  0.08159053  0.97666807     0.12200
C771        C  0.46136249  0.04222828  0.50495678    -0.51300
C772        C  0.48250178  0.06509067  0.50497285     0.12800
H773        H  0.42610343  0.05190314  0.55314212     0.17300
H774        H  0.49526517  0.10521803  0.50528409     0.03000
H775        H  0.42582432  0.05220265  0.95769134     0.17600
H776        H  0.46158741  0.02522579  0.50479518     0.17400
In777      In  0.81124053  0.46884455  0.86547286     1.36900
C778        C  0.80910667  0.42606357  0.87130004     0.80300
O779        O  0.79991391  0.45665423  0.81547059    -0.58200
O780        O  0.82977973  0.49371223  0.82320710    -0.49100
C781        C  0.77284023  0.47449543  0.87527795     0.72900
O782        O  0.77070049  0.45363344  0.87501945    -0.44000
C783        C  0.84658810  0.49419670  0.90843709     0.77600
O784        O  0.79303730  0.42957810  0.88352927    -0.55800
O785        O  0.85091975  0.49683855  0.87920786    -0.45900
O786        O  0.82618418  0.44427508  0.85637237    -0.52200
C787        C  0.81601168  0.47712704  0.80356430     0.87800
O788        O  0.79472299  0.49270282  0.87143154    -0.54100
O789        O  0.82413296  0.47943585  0.91577009    -0.57400
In790      In  0.81018576  0.32091001  0.86542298     1.36900
C791        C  0.81293710  0.31758248  0.80320000     0.80300
O792        O  0.79259374  0.27946146  0.86770860    -0.58200
O793        O  0.77066038  0.29462222  0.87989356    -0.49100
C794        C  0.84511248  0.33003429  0.90777401     0.72900
O795        O  0.84962451  0.33335619  0.87862120    -0.44000
C796        C  0.80902237  0.36192253  0.87174608     0.77600
O797        O  0.82737736  0.31560629  0.82178254    -0.55800
O798        O  0.79155239  0.34110022  0.88120691    -0.45900
O799        O  0.79718086  0.32107450  0.81628695    -0.52200
C800        C  0.77164648  0.27551107  0.87598385     0.87800
O801        O  0.82273734  0.32143616  0.91528033    -0.54100
O802        O  0.82721023  0.36192293  0.85961995    -0.57400
In803      In  0.81111294  0.46898604  0.64590935     1.36900
C804        C  0.80896757  0.42624437  0.63983914     0.80300
O805        O  0.82403876  0.48016402  0.59573368    -0.58200
O806        O  0.85092801  0.49660719  0.63233721    -0.49100
C807        C  0.77254632  0.47433250  0.63594313     0.72900
O808        O  0.77061535  0.45356255  0.63575292    -0.44000
C809        C  0.81587888  0.47719037  0.70784060     0.77600
O810        O  0.79282078  0.42974037  0.62782223    -0.53400
O811        O  0.82926573  0.49395745  0.68819076    -0.45900
O812        O  0.82612231  0.44445263  0.65467529    -0.52200
C813        C  0.84656215  0.49446343  0.60311897     0.87800
O814        O  0.79430416  0.49260597  0.64038541    -0.54100
O815        O  0.80010925  0.45658437  0.69593217    -0.57400
In816      In  0.80979423  0.32098773  0.64515643     1.36900
C817        C  0.81278624  0.31765930  0.70734211     0.80300
O818        O  0.82673759  0.36191252  0.65184783    -0.58200
O819        O  0.79156891  0.34144827  0.62896201    -0.49100
C820        C  0.84465035  0.33007734  0.60270584     0.72900
O821        O  0.84893824  0.33232404  0.63194764    -0.44000
C822        C  0.77109882  0.27557690  0.63479373     0.77600
O823        O  0.82741829  0.31609669  0.68865355    -0.55800
O824        O  0.76998192  0.29467411  0.63170438    -0.45900
O825        O  0.79673057  0.32076954  0.69438131    -0.52200
C826        C  0.80882930  0.36210836  0.63914052     0.87800
O827        O  0.82252455  0.32262978  0.59511883    -0.54100
O828        O  0.79223883  0.27955809  0.64205456    -0.57400
C829        C  0.93625708  0.37022710  0.50564341     0.89200
C830        C  0.91994931  0.35628936  0.53441822    -0.51100
C831        C  0.89746651  0.35455153  0.53410338     0.12100
C832        C  0.89336616  0.36673790  0.50539746     0.23000
C833        C  0.92020662  0.35650980  0.97660989    -0.51800
C834        C  0.89771985  0.35475781  0.97666990     0.12200
C835        C  0.93824717  0.39542279  0.50574212    -0.51300
C836        C  0.91572685  0.39347316  0.50561989     0.12800
H837        H  0.92579359  0.34898766  0.55343805     0.17300
H838        H  0.87505800  0.36531794  0.50529495     0.03000
H839        H  0.92619902  0.34930779  0.95764244     0.17600
H840        H  0.95583692  0.41315673  0.50592886     0.17400
C841        C  0.93861953  0.54347342  0.50583397     0.89200
C842        C  0.92293213  0.54142745  0.97688952    -0.51100
C843        C  0.89966034  0.52046892  0.97710887     0.12100
C844        C  0.89430541  0.50362435  0.50590690     0.23000
C845        C  0.92292105  0.54156534  0.53468996    -0.51800
C846        C  0.89965139  0.52060537  0.53454502     0.12200
C847        C  0.93867092  0.51935548  0.50597625    -0.51300
C848        C  0.91550382  0.49855313  0.50601385     0.12800
H849        H  0.92965480  0.55500260  0.95793809     0.17300
H850        H  0.87539597  0.48653768  0.50594057     0.03000
H851        H  0.92963643  0.55522317  0.55353875     0.17600
H852        H  0.95555662  0.51877539  0.50602771     0.17400
In853      In  0.48353218  0.65368678  0.86510735     1.36900
C854        C  0.44063563  0.61046107  0.86976524     0.80300
O855        O  0.47233682  0.65403173  0.81501296    -0.58200
O856        O  0.50836494  0.66020112  0.82304110    -0.49100
C857        C  0.48833296  0.69743114  0.87541847     0.72900
O858        O  0.46755832  0.67742998  0.87389778    -0.44000
C859        C  0.50889756  0.64528145  0.90831131     0.77600
O860        O  0.44408419  0.62993261  0.88257774    -0.55800
O861        O  0.51317205  0.64591133  0.87916417    -0.45900
O862        O  0.45905093  0.61293413  0.85486739    -0.52200
C863        C  0.49243092  0.65807592  0.80326958     0.87800
O864        O  0.50692411  0.69520586  0.87281061    -0.54100
O865        O  0.49248713  0.64998045  0.91556013    -0.57400
In866      In  0.33100470  0.50152418  0.86590057     1.36900
C867        C  0.37438127  0.54435316  0.87044355     0.80300
O868        O  0.33250502  0.49050104  0.91614165    -0.58200
O869        O  0.33960888  0.47243160  0.87926132    -0.49100
C870        C  0.28669112  0.49573540  0.87656348     0.72900
O871        O  0.30688699  0.51601468  0.88076063    -0.44000
C872        C  0.32724492  0.49465727  0.80372447     0.77600
O873        O  0.35430963  0.54166627  0.88034193    -0.55800
O874        O  0.32487598  0.47818681  0.82259555    -0.45900
O875        O  0.37244120  0.52520286  0.85870032    -0.52200
C876        C  0.33841650  0.47509675  0.90854042     0.87800
O877        O  0.28897704  0.47799001  0.86817090    -0.54100
O878        O  0.33120692  0.51430079  0.81651464    -0.57400
In879      In  0.48404329  0.65411293  0.64574023     1.36900
C880        C  0.44116427  0.61091656  0.64115585     0.80300
O881        O  0.49341270  0.65078003  0.59536493    -0.58200
O882        O  0.51346719  0.64595754  0.63194384    -0.49100
C883        C  0.48868545  0.69780009  0.63555620     0.72900
O884        O  0.46793237  0.67778137  0.63723253    -0.44000
C885        C  0.49276208  0.65839952  0.70758577     0.77600
O886        O  0.44477408  0.63024444  0.62770807    -0.55800
O887        O  0.50892158  0.66095578  0.68788154    -0.45900
O888        O  0.45944892  0.61349428  0.65648578    -0.52200
C889        C  0.50955315  0.64573660  0.60274286     0.87800
O890        O  0.50731092  0.69561592  0.63799679    -0.54100
O891        O  0.47259227  0.65406956  0.69575372    -0.57400
In892      In  0.33155333  0.50206425  0.64570469     1.36900
C893        C  0.37486789  0.54490253  0.64129964     0.80300
O894        O  0.33149820  0.51462388  0.69516225    -0.58200
O895        O  0.32549279  0.47865763  0.68891282    -0.49100
C896        C  0.28729328  0.49630445  0.63475822     0.72900
O897        O  0.30748647  0.51666705  0.63108996    -0.44000
C898        C  0.33905949  0.47571619  0.60303178     0.77600
O899        O  0.35483118  0.54213872  0.63113061    -0.55800
O900        O  0.33946026  0.47248129  0.63230745    -0.45900
O901        O  0.37292151  0.52583330  0.65335597    -0.52200
C902        C  0.32761407  0.49497512  0.70785797     0.87800
O903        O  0.28956107  0.47848250  0.64278680    -0.54100
O904        O  0.33396498  0.49172081  0.59541872    -0.57400
C905        C  0.55497821  0.60177521  0.50543977     0.89200
C906        C  0.55413020  0.61598148  0.97643212    -0.51100
C907        C  0.53427148  0.61905584  0.97678547     0.12100
C908        C  0.51725664  0.60773543  0.50569540     0.23000
C909        C  0.55450297  0.61630407  0.53429804    -0.51800
C910        C  0.53464408  0.61936956  0.53422232     0.12200
C911        C  0.52957717  0.57737226  0.50575664    -0.51300
C912        C  0.50993123  0.58057416  0.50588877     0.12800
H913        H  0.56760286  0.62254126  0.95729580     0.17300
H914        H  0.50105208  0.61013529  0.50581110     0.03000
H915        H  0.56820471  0.62305190  0.55317645     0.17600
H916        H  0.52731908  0.55916396  0.50584336     0.17400
C917        C  0.38062719  0.42781673  0.50577487     0.89200
C918        C  0.36634218  0.42869746  0.53477182    -0.51100
C919        C  0.36349274  0.44862570  0.53452646     0.12100
C920        C  0.37503438  0.46561976  0.50571475     0.23000
C921        C  0.36621029  0.42857791  0.97685800    -0.51800
C922        C  0.36335350  0.44849705  0.97703668     0.12200
C923        C  0.40526321  0.45301479  0.50566938    -0.51300
C924        C  0.40223401  0.47269089  0.50565537     0.12800
H925        H  0.35970694  0.41527859  0.55390386     0.17300
H926        H  0.37281687  0.48187186  0.50568942     0.03000
H927        H  0.35946397  0.41506574  0.95783339     0.17600
H928        H  0.42349287  0.45511709  0.50567761     0.17400
In929      In  0.33524637  0.79883287  0.86631808     1.36900
C930        C  0.33230021  0.80212093  0.80413161     0.80300
O931        O  0.37605122  0.81501134  0.85822559    -0.58200
O932        O  0.35619767  0.78165735  0.88477905    -0.49100
C933        C  0.34418304  0.83340566  0.90875574     0.72900
O934        O  0.34683340  0.83782032  0.87955727    -0.44000
C935        C  0.28960689  0.76028288  0.87621892     0.77600
O936        O  0.33095982  0.81682886  0.82283683    -0.55800
O937        O  0.30873777  0.75901024  0.87875284    -0.45900
O938        O  0.33488814  0.78578510  0.81710645    -0.52200
C939        C  0.37661593  0.79805316  0.87283902     0.87800
O940        O  0.33630824  0.81129223  0.91627611    -0.54100
O941        O  0.29365542  0.78141380  0.86936425    -0.57400
In942      In  0.48388384  0.80034867  0.86485946     1.36900
C943        C  0.44098672  0.79817974  0.87114526     0.80300
O944        O  0.49531179  0.81301806  0.91495258    -0.58200
O945        O  0.51078691  0.84013173  0.87861428    -0.49100
C946        C  0.48823569  0.76138600  0.87470933     0.72900
O947        O  0.46749213  0.75969395  0.87343385    -0.44000
C948        C  0.49356075  0.80552805  0.80334653     0.77600
O949        O  0.44497138  0.78278829  0.88429723    -0.55800
O950        O  0.51023467  0.81800696  0.82358271    -0.45900
O951        O  0.45873770  0.81451382  0.85480098    -0.52200
C952        C  0.50900458  0.83556503  0.90776803     0.87800
O953        O  0.50691284  0.78305594  0.87173355    -0.54100
O954        O  0.47230471  0.79053175  0.81447657    -0.57400
In955      In  0.33514293  0.79848833  0.64595314     1.36900
C956        C  0.37646686  0.79761655  0.63954856     0.80300
O957        O  0.33642154  0.81092518  0.59587940    -0.58200
O958        O  0.34661558  0.83741158  0.63256042    -0.49100
C959        C  0.28946165  0.76010706  0.63546706     0.72900
O960        O  0.30860945  0.75896947  0.63205754    -0.44000
C961        C  0.33235481  0.80196591  0.70819941     0.77600
O962        O  0.35565132  0.78025220  0.62978031    -0.55800
O963        O  0.33064275  0.81638567  0.68939279    -0.45900
O964        O  0.37628701  0.81551234  0.65202676    -0.52200
C965        C  0.34415229  0.83301968  0.60335845     0.87800
O966        O  0.29351390  0.78103889  0.64345569    -0.54100
O967        O  0.33527921  0.78581992  0.69532130    -0.57400
In968      In  0.48414067  0.80062572  0.64636169     1.36900
C969        C  0.44113155  0.79827976  0.64048932     0.80300
O970        O  0.47251532  0.79057603  0.69671567    -0.58200
O971        O  0.51035550  0.81832398  0.68779356    -0.49100
C972        C  0.48859793  0.76176010  0.63618769     0.72900
O973        O  0.46784802  0.76003744  0.63750126    -0.44000
C974        C  0.50923585  0.83581470  0.60335283     0.77600
O975        O  0.44481691  0.78241097  0.62821045    -0.55800
O976        O  0.51139767  0.84032278  0.63253475    -0.45900
O977        O  0.45928894  0.81526963  0.65563534    -0.52200
C978        C  0.49369061  0.80566760  0.70795135     0.87800
O979        O  0.50725654  0.78343915  0.63919872    -0.54100
O980        O  0.49511520  0.81331979  0.59615065    -0.57400
C981        C  0.38335612  0.92400841  0.50628786     0.89200
C982        C  0.36974771  0.90779079  0.97739677    -0.51100
C983        C  0.36874139  0.88578722  0.97748904     0.12100
C984        C  0.38127691  0.88201455  0.50611208     0.23000
C985        C  0.36981565  0.90770779  0.53516703    -0.51800
C986        C  0.36880510  0.88569189  0.53488198     0.12200
C987        C  0.40907445  0.92685923  0.50618933    -0.51300
C988        C  0.40784610  0.90477797  0.50609758     0.12800
H989        H  0.36203285  0.91331566  0.95850970     0.17300
H990        H  0.38042779  0.86406595  0.50602508     0.03000
H991        H  0.36212674  0.91317067  0.55414941     0.17600
H992        H  0.42659387  0.94466025  0.50617312     0.17400
C993        C  0.55833064  0.92691016  0.50527365     0.89200
C994        C  0.55636445  0.91135455  0.53423512    -0.51100
C995        C  0.53523734  0.88824057  0.53421900     0.12100
C996        C  0.51816602  0.88288298  0.50557017     0.23000
C997        C  0.55617891  0.91117351  0.97644886    -0.51800
C998        C  0.53505756  0.88806514  0.97677540     0.12200
C999        C  0.53417373  0.92708058  0.50535018    -0.51300
C1000       C  0.51321154  0.90408115  0.50550976     0.12800
H1001       H  0.57009261  0.91806151  0.55307790     0.17300
H1002       H  0.50094697  0.86409991  0.50569024     0.03000
H1003       H  0.56977794  0.91776083  0.95745867     0.17600
H1004       H  0.53368342  0.94394008  0.50528579     0.17400
In1005     In  0.18417730  0.50147963  0.86541761     1.36900
C1006       C  0.18592792  0.54403198  0.87052055     0.80300
O1007       O  0.19602135  0.51389885  0.81557956    -0.58200
O1008       O  0.16640775  0.47664863  0.82295358    -0.49100
C1009       C  0.22257255  0.49605025  0.87597593     0.72900
O1010       O  0.22443268  0.51678559  0.87692721    -0.44000
C1011       C  0.14869820  0.47641826  0.90840725     0.77600
O1012       O  0.20229620  0.54089885  0.88261062    -0.55800
O1013       O  0.14430529  0.47409732  0.87918544    -0.45900
O1014       O  0.16882734  0.52559935  0.85594647    -0.52200
C1015       C  0.18023502  0.49337631  0.80348129     0.87800
O1016       O  0.20093220  0.47783945  0.87065327    -0.54100
O1017       O  0.17126701  0.49058651  0.91568477    -0.57400
In1018     In  0.18450798  0.50152840  0.64578503     1.36900
C1019       C  0.18634415  0.54410207  0.64036304     0.80300
O1020       O  0.17124980  0.49066545  0.59565777    -0.58200
O1021       O  0.14455591  0.47403564  0.63243376    -0.49100
C1022       C  0.22311322  0.49642909  0.63525422     0.72900
O1023       O  0.22498443  0.51717393  0.63535653    -0.44000
C1024       C  0.18040759  0.49332810  0.70769935     0.77600
O1025       O  0.20217909  0.54059016  0.62737583    -0.55800
O1026       O  0.16700567  0.47646056  0.68815042    -0.45900
O1027       O  0.16972565  0.52602588  0.65595900    -0.52200
C1028       C  0.14875128  0.47639808  0.60316502     0.87800
O1029       O  0.20138772  0.47806833  0.63958189    -0.54100
O1030       O  0.19587794  0.51400276  0.69568045    -0.57400
C1031       C  0.05656406  0.42684938  0.50582928     0.89200
C1032       C  0.07240312  0.42915281  0.97692273    -0.51100
C1033       C  0.09551323  0.45034590  0.97712985     0.12100
C1034       C  0.10057298  0.46713857  0.50591519     0.23000
C1035       C  0.07237185  0.42905584  0.53472453    -0.51800
C1036       C  0.09547576  0.45025356  0.53461115     0.12200
C1037       C  0.05607351  0.45074039  0.50590164    -0.51300
C1038       C  0.07907259  0.47177145  0.50594717     0.12800
H1039       H  0.06589535  0.41556152  0.95801044     0.17300
H1040       H  0.11934458  0.48440711  0.50595392     0.03000
H1041       H  0.06584098  0.41540984  0.55357663     0.17600
H1042       H  0.03901368  0.45100237  0.50590083     0.17400
In1043     In  0.18538608  0.64943191  0.86599466     1.36900
C1044       C  0.18315092  0.65191525  0.80351119     0.80300
O1045       O  0.20300731  0.69089760  0.86757088    -0.58200
O1046       O  0.22455400  0.67582639  0.88192073    -0.49100
C1047       C  0.15051854  0.64096140  0.90808737     0.72900
O1048       O  0.14710507  0.64111349  0.87880321    -0.44000
C1049       C  0.18576877  0.60801043  0.87157823     0.77600
O1050       O  0.16739933  0.65220391  0.82146794    -0.55800
O1051       O  0.20337193  0.62861009  0.88140898    -0.45900
O1052       O  0.19999897  0.65054495  0.81735663    -0.52200
C1053       C  0.22373201  0.69490993  0.87693796     0.87800
O1054       O  0.17182822  0.64577645  0.91593707    -0.54100
O1055       O  0.16775015  0.60839255  0.85954549    -0.57400
In1056     In  0.18520974  0.64919747  0.64489509     1.36900
C1057       C  0.18300765  0.65179151  0.70735741     0.80300
O1058       O  0.16777038  0.60814122  0.65092577    -0.58200
O1059       O  0.20363813  0.62872339  0.62977031    -0.49100
C1060       C  0.15037533  0.64052935  0.60259777     0.72900
O1061       O  0.14640652  0.63925861  0.63189051    -0.44000
C1062       C  0.22352725  0.69475802  0.63427064     0.77600
O1063       O  0.16775160  0.65293702  0.68935241    -0.55800
O1064       O  0.22421435  0.67569309  0.62848355    -0.45900
O1065       O  0.19931298  0.64949965  0.69356623    -0.52200
C1066       C  0.18600658  0.60799033  0.63921593     0.87800
O1067       O  0.17217687  0.64684445  0.59489308    -0.54100
O1068       O  0.20293326  0.69069526  0.64429621    -0.57400
C1069       C  0.05904762  0.60058625  0.50526643     0.89200
C1070       C  0.07523609  0.61439815  0.53414741    -0.51100
C1071       C  0.09774724  0.61621622  0.53385723     0.12100
C1072       C  0.10198503  0.60420301  0.50505621     0.23000
C1073       C  0.07513374  0.61449100  0.97635674    -0.51800
C1074       C  0.09764980  0.61631733  0.97643305     0.12200
C1075       C  0.05712857  0.57543191  0.50515304    -0.51300
C1076       C  0.07965973  0.57742083  0.50505988     0.12800
H1077       H  0.06929997  0.62157266  0.55321467     0.17300
H1078       H  0.12032327  0.60568907  0.50497189     0.03000
H1079       H  0.06915023  0.62176403  0.95746032     0.17600
H1080       H  0.03955824  0.55767708  0.50523858     0.17400
C1081       C  0.11557986  0.62697585  0.55921727    -0.10600
C1082       C  0.13125521  0.63419324  0.57955841    -0.12200
C1083       C  0.18191436  0.65271516  0.74118278    -0.10600
C1084       C  0.18197867  0.65274737  0.76968469    -0.12200
C1085       C  0.11548439  0.62730155  0.95111126    -0.10600
C1086       C  0.13126805  0.63464811  0.93090413    -0.12200
C1087       C  0.08239332  0.49605064  0.50594251    -0.15800
C1088       C  0.08348809  0.51559678  0.50581054     0.08200
C1089       C  0.08327907  0.53773428  0.50552229     0.10100
C1090       C  0.08208572  0.55607438  0.50525561    -0.16700
C1091       C  0.18684715  0.58587495  0.63758197    -0.10600
C1092       C  0.18710794  0.56703077  0.63795615    -0.12200
C1093       C  0.12924956  0.46467403  0.57996491    -0.10600
C1094       C  0.11340132  0.45696318  0.55973572    -0.12200
C1095       C  0.17820060  0.48978080  0.76984621    -0.10600
C1096       C  0.17824670  0.48974125  0.74133419    -0.12200
C1097       C  0.11349122  0.45709748  0.95204941    -0.10600
C1098       C  0.12932030  0.46477555  0.93178999    -0.12200
C1099       C  0.18664380  0.56693647  0.87279593    -0.10600
C1100       C  0.18642802  0.58580076  0.87315801    -0.12200
C1101       C  0.42962520  0.90295255  0.50595066    -0.15800
C1102       C  0.44777877  0.90132023  0.50582933     0.08200
C1103       C  0.46944854  0.90011812  0.50570522     0.10100
C1104       C  0.48878550  0.90063636  0.50561338    -0.16700
C1105       C  0.52100979  0.85497965  0.57989812    -0.10600
C1106       C  0.52869151  0.87058055  0.55947997    -0.12200
C1107       C  0.35072688  0.85199623  0.58018309    -0.10600
C1108       C  0.35808557  0.86771797  0.55999461    -0.12200
C1109       C  0.39873801  0.79691482  0.63748687    -0.10600
C1110       C  0.41788996  0.79707647  0.63786344    -0.12200
C1111       C  0.26486832  0.73868869  0.63186460    -0.10600
C1112       C  0.24518984  0.71921928  0.63141139    -0.12200
C1113       C  0.49795512  0.80810486  0.76990238    -0.10600
C1114       C  0.49799916  0.80815233  0.74141412    -0.12200
C1115       C  0.52070676  0.85469993  0.93124020    -0.10600
C1116       C  0.52837193  0.87029303  0.95164916    -0.12200
C1117       C  0.33131441  0.80380623  0.77040419    -0.10600
C1118       C  0.33134478  0.80374415  0.74191207    -0.12200
C1119       C  0.35071676  0.85235632  0.93192416    -0.10600
C1120       C  0.35804065  0.86796125  0.95224200    -0.12200
C1121       C  0.39883109  0.79723930  0.87481449    -0.10600
C1122       C  0.41787688  0.79720247  0.87417417    -0.12200
C1123       C  0.26502839  0.73883144  0.87961097    -0.10600
C1124       C  0.24536902  0.71935380  0.87994239    -0.12200
C1125       C  0.42301750  0.49789672  0.50579294    -0.15800
C1126       C  0.44139553  0.51840472  0.50595903     0.08200
C1127       C  0.46414719  0.54140124  0.50609155     0.10100
C1128       C  0.48458144  0.55993231  0.50607641    -0.16700
C1129       C  0.24447418  0.49416635  0.63182835    -0.10600
C1130       C  0.26353278  0.49407761  0.63163769    -0.12200
C1131       C  0.34515665  0.46301654  0.58004259    -0.10600
C1132       C  0.35242008  0.45476730  0.55997419    -0.12200
C1133       C  0.49068873  0.72135871  0.63255178    -0.10600
C1134       C  0.49060709  0.74033680  0.63279040    -0.12200
C1135       C  0.52915084  0.63105633  0.55948020    -0.10600
C1136       C  0.52159304  0.63895747  0.57960372    -0.12200
C1137       C  0.39817282  0.56817051  0.63977683    -0.10600
C1138       C  0.41779676  0.58771298  0.63968943    -0.12200
C1139       C  0.32598980  0.49171637  0.77002415    -0.10600
C1140       C  0.32612166  0.49183288  0.74153321    -0.12200
C1141       C  0.24388259  0.49367555  0.87932753    -0.10600
C1142       C  0.26292006  0.49353352  0.87953653    -0.12200
C1143       C  0.35206346  0.45444789  0.95166085    -0.10600
C1144       C  0.34461994  0.46251504  0.93157919    -0.12200
C1145       C  0.49636069  0.65968285  0.76969805    -0.10600
C1146       C  0.49649443  0.65980389  0.74118714    -0.12200
C1147       C  0.49036999  0.72100562  0.87839110    -0.10600
C1148       C  0.49024146  0.73995847  0.87809656    -0.12200
C1149       C  0.52087421  0.63844926  0.93149632    -0.10600
C1150       C  0.52851187  0.63057642  0.95156738    -0.12200
C1151       C  0.39770235  0.56763936  0.87177798    -0.10600
C1152       C  0.41731629  0.58720469  0.87153410    -0.12200
C1153       C  0.96418116  0.56516564  0.50578470    -0.15800
C1154       C  0.98647129  0.57930836  0.50569916     0.08200
C1155       C  0.01269816  0.59128319  0.50555301     0.10100
C1156       C  0.03436813  0.59762678  0.50541216    -0.16700
C1157       C  0.96092202  0.37307501  0.50576507    -0.15800
C1158       C  0.98254337  0.37917767  0.50579949     0.08200
C1159       C  0.00877258  0.39085813  0.50579571     0.10100
C1160       C  0.03109368  0.40493511  0.50579297    -0.16700
C1161       C  0.91323234  0.41476137  0.50579465    -0.15800
C1162       C  0.91161133  0.43284388  0.50594547     0.08200
C1163       C  0.91086511  0.45467369  0.50606577     0.10100
C1164       C  0.91181897  0.47414046  0.50608665    -0.16700
C1165       C  0.86375868  0.33651372  0.57959598    -0.10600
C1166       C  0.87952662  0.34375289  0.55936257    -0.12200
C1167       C  0.86594287  0.50640436  0.57984587    -0.10600
C1168       C  0.88177839  0.51414051  0.55962746    -0.12200
C1169       C  0.80790942  0.40316415  0.63735201    -0.10600
C1170       C  0.80798511  0.38421592  0.63714997    -0.12200
C1171       C  0.81429547  0.31637958  0.74102488    -0.10600
C1172       C  0.81433837  0.31634718  0.76949708    -0.12200
C1173       C  0.86421852  0.33660203  0.93093074    -0.10600
C1174       C  0.87992272  0.34395042  0.95125922    -0.12200
C1175       C  0.81830531  0.48084256  0.74145146    -0.10600
C1176       C  0.81836038  0.48082568  0.76995898    -0.12200
C1177       C  0.88178226  0.51390718  0.95199041    -0.10600
C1178       C  0.86595190  0.50613263  0.93175154    -0.12200
C1179       C  0.80805136  0.40296550  0.87368546    -0.10600
C1180       C  0.80812103  0.38400611  0.87383550    -0.12200
C1181       C  0.38524070  0.94807377  0.50628742    -0.15800
C1182       C  0.39051224  0.96930604  0.50601898     0.08200
C1183       C  0.40153318  0.99527552  0.50557845     0.10100
C1184       C  0.41542720  0.01749327  0.50528078    -0.16700
C1185       C  0.47510761  0.11487566  0.57945199    -0.10600
C1186       C  0.46768139  0.09921332  0.55914363    -0.12200
C1187       C  0.49825083  0.16296651  0.76982660    -0.10600
C1188       C  0.49824150  0.16289191  0.74131770    -0.12200
C1189       C  0.46744995  0.09958641  0.95183058    -0.10600
C1190       C  0.47493858  0.11537812  0.93167006    -0.12200
C1191       C  0.61103109  0.02198859  0.50553514    -0.15800
C1192       C  0.60539922  0.00062757  0.50529432     0.08200
C1193       C  0.59403860  0.97458471  0.50511144     0.10100
C1194       C  0.58012694  0.95234881  0.50510980    -0.16700
C1195       C  0.56642716  0.06675240  0.50524946    -0.15800
C1196       C  0.54805268  0.06799957  0.50496186     0.08200
C1197       C  0.52616245  0.06880310  0.50479470     0.10100
C1198       C  0.50679457  0.06822246  0.50481185    -0.16700
C1199       C  0.57711371  0.17260527  0.63841010    -0.10600
C1200       C  0.59614004  0.17253307  0.63809116    -0.12200
C1201       C  0.64453559  0.11743042  0.58081180    -0.10600
C1202       C  0.63746518  0.10181383  0.56050153    -0.12200
C1203       C  0.72980518  0.23157277  0.63223144    -0.10600
C1204       C  0.74941903  0.25111869  0.63188005    -0.12200
C1205       C  0.66480295  0.16664219  0.74203104    -0.10600
C1206       C  0.66475642  0.16666665  0.77051135    -0.12200
C1207       C  0.63822098  0.10266018  0.95252191    -0.10600
C1208       C  0.64522903  0.11833827  0.93230912    -0.12200
C1209       C  0.57715370  0.17263507  0.87311895    -0.10600
C1210       C  0.59622218  0.17265105  0.87365157    -0.12200
C1211       C  0.73032553  0.23160290  0.87926560    -0.10600
C1212       C  0.74999880  0.25107933  0.87919758    -0.12200
C1213       C  0.41948007  0.37260853  0.50553443    -0.15800
C1214       C  0.40567914  0.38046425  0.50561267     0.08200
C1215       C  0.39290598  0.39336866  0.50572015     0.10100
C1216       C  0.38515840  0.40722896  0.50578224    -0.16700
C1217       C  0.61022561  0.56295956  0.50600837    -0.15800
C1218       C  0.60242545  0.57675717  0.50582545     0.08200
C1219       C  0.58946840  0.58944712  0.50553615     0.10100
C1220       C  0.57554297  0.59713559  0.50537459    -0.16700
C1221       C  0.57205330  0.47226295  0.50573050    -0.15800
C1222       C  0.55363863  0.45176898  0.50570233     0.08200
C1223       C  0.53088425  0.42875589  0.50571021     0.10100
C1224       C  0.51047853  0.41017460  0.50571917    -0.16700
C1225       C  0.50349730  0.24798060  0.63109681    -0.10600
C1226       C  0.50335677  0.22887937  0.63133082    -0.12200
C1227       C  0.46653300  0.33927825  0.55959337    -0.10600
C1228       C  0.47425332  0.33151177  0.57970318    -0.12200
C1229       C  0.65001252  0.50715184  0.58032412    -0.10600
C1230       C  0.64273802  0.51529150  0.56013919    -0.12200
C1231       C  0.57753373  0.38271776  0.63981931    -0.10600
C1232       C  0.59705919  0.40239856  0.63987708    -0.12200
C1233       C  0.73210428  0.47670280  0.63230426    -0.10600
C1234       C  0.75121537  0.47669004  0.63259811    -0.12200
C1235       C  0.49965996  0.30948926  0.74116402    -0.10600
C1236       C  0.49974312  0.30962811  0.76969684    -0.12200
C1237       C  0.50455501  0.22989334  0.87933979    -0.10600
C1238       C  0.50477417  0.24903092  0.87948972    -0.12200
C1239       C  0.47470971  0.33205947  0.93111460    -0.10600
C1240       C  0.46687434  0.33965820  0.95131134    -0.12200
C1241       C  0.67040792  0.47940373  0.77015972    -0.10600
C1242       C  0.67034246  0.47931057  0.74167965    -0.12200
C1243       C  0.65025414  0.50758301  0.93145159    -0.10600
C1244       C  0.64291041  0.51559907  0.95170091    -0.12200
C1245       C  0.59763321  0.40300745  0.87248482    -0.10600
C1246       C  0.57812590  0.38333377  0.87224161    -0.12200
C1247       C  0.73254431  0.47712557  0.87882435    -0.10600
C1248       C  0.75161074  0.47703031  0.87850514    -0.12200
loop_ 
_geom_bond_atom_site_label_1 
_geom_bond_atom_site_label_2 
_geom_bond_distance 
_geom_bond_site_symmetry_2 
_ccdc_geom_bond_type 
In1           O3   2.251       .  S
In1           O4   2.254       .  S
In1          O12   2.260       .  S
In1           O6   2.245       .  S
In1           O8   2.251       .  S
In1           O9   2.257       .  S
In1          O10   2.248       .  S
In1          O13   2.236       .  S
C2            O8   1.260       .  A
C2           O10   1.259       .  A
C2          C621   1.436       .  S
O3           C11   1.259       .  A
O4           C11   1.259       .  A
C5           O12   1.260       .  A
C5            O6   1.259       .  A
C5          C623   1.439       .  S
C7            O9   1.261       .  A
C7           O13   1.257       .  A
C7          C617   1.434       .  S
C11         C619   1.438       .  S
In14         O16   2.239       .  S
In14         O17   2.264       .  S
In14         O25   2.262       .  S
In14         O19   2.247       .  S
In14         O21   2.253       .  S
In14         O22   2.256       .  S
In14         O23   2.245       .  S
In14         O26   2.252       .  S
C15          O21   1.260       .  A
C15          O23   1.258       .  A
C15         C622   1.436       .  S
O16          C24   1.258       .  A
O17          C24   1.261       .  A
C18          O25   1.260       .  A
C18          O19   1.258       .  A
C18         C614   1.439       .  S
C20          O22   1.259       .  A
C20          O26   1.259       .  A
C20         C615   1.440       .  S
C24         C612   1.438       .  S
In27         O29   2.238       .  S
In27         O30   2.257       .  S
In27         O38   2.261       .  S
In27         O32   2.246       .  S
In27         O34   2.252       .  S
In27         O35   2.254       .  S
In27         O36   2.251       .  S
In27         O39   2.252       .  S
C28          O34   1.259       .  A
C28          O36   1.259       .  A
C28         C608   1.437       .  S
O29          C37   1.257       .  A
O30          C37   1.260       .  A
C31          O38   1.260       .  A
C31          O32   1.258       .  A
C31         C609   1.439       .  S
C33          O35   1.259       .  A
C33          O39   1.259       .  A
C33         C605   1.439       .  S
C37         C618   1.434       .  S
In40         O42   2.251       .  S
In40         O43   2.254       .  S
In40         O51   2.263       .  S
In40         O45   2.248       .  S
In40         O47   2.254       .  S
In40         O48   2.263       .  S
In40         O49   2.246       .  S
In40         O52   2.239       .  S
C41          O47   1.260       .  A
C41          O49   1.259       .  A
C41         C607   1.437       .  S
O42          C50   1.259       .  A
O43          C50   1.259       .  A
C44          O51   1.260       .  A
C44          O45   1.258       .  A
C44         C601   1.439       .  S
C46          O48   1.261       .  A
C46          O52   1.258       .  A
C46         C611   1.438       .  S
C50         C604   1.439       .  S
C53          C54   1.541       .  S
C53          C59   1.534       .  S
C53         C681   1.540   1_554  S
C53         C593   1.476       .  S
C54          H61   1.086       .  S
C54          C55   1.368       .  D
C55          C56   1.534       .  S
C55         C606   1.444       .  S
C56          C60   1.531       .  S
C56         C682   1.534   1_554  S
C56          H62   1.112       .  S
C57         C677   1.540       .  S
C57          H63   1.086       .  S
C57          C58   1.368       .  D
C58         C680   1.534       .  S
C58         C620   1.444       .  S
C59          H64   1.088       .  S
C59          C60   1.360       .  D
C60         C597   1.438       .  S
C65          C71   1.534       .  S
C65          C69   1.541       .  S
C65         C690   1.541   1_554  S
C65         C589   1.478       .  S
C66         C689   1.541       .  S
C66          H73   1.086       .  S
C66          C67   1.369       .  D
C67         C692   1.534       .  S
C67         C616   1.446       .  S
C68          C72   1.531       .  S
C68          C70   1.534       .  S
C68         C691   1.534   1_554  S
C68          H74   1.112       .  S
C69          H75   1.086       .  S
C69          C70   1.368       .  D
C70         C603   1.445       .  S
C71          H76   1.087       .  S
C71          C72   1.360       .  D
C72         C600   1.438       .  S
In77         O79   2.237       .  S
In77         O80   2.254       .  S
In77         O88   2.253       .  S
In77         O82   2.239       .  S
In77         O84   2.251       .  S
In77         O85   2.250       .  S
In77         O86   2.243       .  S
In77         O89   2.248       .  S
C78          O84   1.259       .  A
C78          O86   1.258       .  A
C78         C586   1.434       .  S
O79          C87   1.258       .  A
O80          C87   1.260       .  A
C81          O88   1.259       .  A
C81          O82   1.258       .  A
C81         C587   1.434       .  S
C83          O85   1.258       .  A
C83          O89   1.258       .  A
C83         C584   1.435       .  S
C87         C582   1.434       .  S
In90         O92   2.247       .  S
In90         O93   2.252       .  S
In90        O101   2.255       .  S
In90         O95   2.238       .  S
In90         O97   2.251       .  S
In90         O98   2.256       .  S
In90         O99   2.244       .  S
In90        O102   2.237       .  S
C91          O97   1.259       .  A
C91          O99   1.258       .  A
C91         C576   1.434       .  S
O92         C100   1.258       .  A
O93         C100   1.258       .  A
C94         O101   1.260       .  A
C94          O95   1.258       .  A
C94         C579   1.435       .  S
C96          O98   1.260       .  A
C96         O102   1.258       .  A
C96         C581   1.434       .  S
C100        C577   1.435       .  S
C103        C109   1.537       .  S
C103        C107   1.537       .  S
C103        C728   1.537   1_554  S
C103        C567   1.470       .  S
C104        C727   1.537       .  S
C104        H111   1.086       .  S
C104        C105   1.366       .  D
C105        C730   1.534       .  S
C105        C583   1.441       .  S
C106        C110   1.532       .  S
C106        C108   1.534       .  S
C106        C729   1.534   1_554  S
C106        H112   1.112       .  S
C107        H113   1.086       .  S
C107        C108   1.366       .  D
C108        C578   1.441       .  S
C109        H114   1.087       .  S
C109        C110   1.362       .  D
C110        C571   1.441       .  S
In115       O117   2.249       .  S
In115       O118   2.253       .  S
In115       O126   2.260       .  S
In115       O120   2.243       .  S
In115       O122   2.251       .  S
In115       O123   2.262       .  S
In115       O124   2.242       .  S
In115       O127   2.236       .  S
C116        O122   1.260       .  A
C116        O124   1.258       .  A
C116        C585   1.434       .  S
O117        C125   1.258       .  A
O118        C125   1.259       .  A
C119        O126   1.260       .  A
C119        O120   1.258       .  A
C119        C613   1.439       .  S
C121        O123   1.261       .  A
C121        O127   1.258       .  A
C121        C563   1.436       .  S
C125        C566   1.437       .  S
In128       O130   2.236       .  S
In128       O131   2.261       .  S
In128       O139   2.260       .  S
In128       O133   2.244       .  S
In128       O135   2.252       .  S
In128       O136   2.254       .  S
In128       O137   2.240       .  S
In128       O140   2.248       .  S
C129        O135   1.260       .  A
C129        O137   1.259       .  A
C129        C575   1.434       .  S
O130        C138   1.258       .  A
O131        C138   1.261       .  A
C132        O139   1.260       .  A
C132        O133   1.258       .  A
C132        C602   1.439       .  S
C134        O136   1.259       .  A
C134        O140   1.258       .  A
C134        C561   1.436       .  S
C138        C564   1.436       .  S
C141        C142   1.536       .  S
C141        C147   1.532       .  S
C141        C769   1.537   1_554  S
C141        C560   1.467       .  S
C142        H149   1.086       .  S
C142        C143   1.366       .  D
C143        C144   1.537       .  S
C143        C562   1.442       .  S
C144        C148   1.535       .  S
C144        C770   1.537   1_554  S
C144        H150   1.112       .  S
C145        C765   1.537       .  S
C145        H151   1.086       .  S
C145        C146   1.367       .  D
C146        C768   1.537       .  S
C146        C565   1.443       .  S
C147        H152   1.087       .  S
C147        C148   1.358       .  D
C148        C574   1.440       .  S
In153       O155   2.237       .  S
In153       O156   2.261       .  S
In153       O164   2.262       .  S
In153       O158   2.247       .  S
In153       O160   2.257       .  S
In153       O161   2.254       .  S
In153       O162   2.243       .  S
In153       O165   2.251       .  S
C154        O160   1.260       .  A
C154        O162   1.258       .  A
C154        C555   1.436       .  S
O155        C163   1.258       .  A
O156        C163   1.261       .  A
C157        O164   1.260       .  A
C157        O158   1.258       .  A
C157        C624   1.440       .  S
C159        O161   1.259       .  A
C159        O165   1.259       .  A
C159        C554   1.437       .  S
C163        C552   1.436       .  S
In166       O168   2.254       .  S
In166       O169   2.236       .  S
In166       O177   2.248       .  S
In166       O171   2.252       .  S
In166       O173   2.256       .  S
In166       O174   2.252       .  S
In166       O175   2.237       .  S
In166       O178   2.245       .  S
C167        O173   1.260       .  A
C167        O175   1.257       .  A
C167        C548   1.433       .  S
O168        C176   1.260       .  A
O169        C176   1.258       .  A
C170        O177   1.258       .  A
C170        O171   1.258       .  A
C170        C549   1.435       .  S
C172        O174   1.259       .  A
C172        O178   1.259       .  A
C172        C556   1.436       .  S
C176        C588   1.434       .  S
In179       O181   2.251       .  S
In179       O182   2.253       .  S
In179       O190   2.261       .  S
In179       O184   2.247       .  S
In179       O186   2.256       .  S
In179       O187   2.261       .  S
In179       O188   2.241       .  S
In179       O191   2.237       .  S
C180        O186   1.260       .  A
C180        O188   1.258       .  A
C180        C545   1.435       .  S
O181        C189   1.258       .  A
O182        C189   1.258       .  A
C183        O190   1.260       .  A
C183        O184   1.259       .  A
C183        C610   1.440       .  S
C185        O187   1.261       .  A
C185        O191   1.258       .  A
C185        C551   1.436       .  S
C189        C543   1.437       .  S
In192       O194   2.245       .  S
In192       O195   2.250       .  S
In192       O203   2.248       .  S
In192       O197   2.252       .  S
In192       O199   2.256       .  S
In192       O200   2.238       .  S
In192       O201   2.238       .  S
In192       O204   2.255       .  S
C193        O199   1.260       .  A
C193        O201   1.257       .  A
C193        C547   1.433       .  S
O194        C202   1.259       .  A
O195        C202   1.259       .  A
C196        O203   1.259       .  A
C196        O197   1.258       .  A
C196        C541   1.435       .  S
C198        O200   1.258       .  A
C198        O204   1.260       .  A
C198        C580   1.434       .  S
C202        C546   1.435       .  S
C205        C206   1.538       .  S
C205        C211   1.537       .  S
C205        C833   1.537   1_554  S
C205        C533   1.471       .  S
C206        H213   1.086       .  S
C206        C207   1.366       .  D
C207        C208   1.534       .  S
C207        C542   1.441       .  S
C208        C212   1.532       .  S
C208        C834   1.534   1_554  S
C208        H214   1.112       .  S
C209        C829   1.537       .  S
C209        H215   1.086       .  S
C209        C210   1.366       .  D
C210        C832   1.534       .  S
C210        C550   1.441       .  S
C211        H216   1.087       .  S
C211        C212   1.362       .  D
C212        C537   1.441       .  S
C217        C223   1.533       .  S
C217        C221   1.537       .  S
C217        C842   1.537   1_554  S
C217        C529   1.469       .  S
C218        C841   1.537       .  S
C218        H225   1.086       .  S
C218        C219   1.367       .  D
C219        C844   1.536       .  S
C219        C553   1.443       .  S
C220        C224   1.534       .  S
C220        C222   1.536       .  S
C220        C843   1.536   1_554  S
C220        H226   1.112       .  S
C221        H227   1.086       .  S
C221        C222   1.367       .  D
C222        C544   1.443       .  S
C223        H228   1.087       .  S
C223        C224   1.359       .  D
C224        C540   1.441       .  S
In229       O231   2.238       .  S
In229       O232   2.262       .  S
In229       O240   2.264       .  S
In229       O234   2.244       .  S
In229       O236   2.251       .  S
In229       O237   2.254       .  S
In229       O238   2.247       .  S
In229       O241   2.252       .  S
C230        O236   1.259       .  A
C230        O238   1.258       .  A
C230        C528   1.435       .  S
O231        C239   1.258       .  A
O232        C239   1.260       .  A
C233        O240   1.260       .  A
C233        O234   1.257       .  A
C233        C523   1.438       .  S
C235        O237   1.259       .  A
C235        O241   1.259       .  A
C235        C525   1.439       .  S
C239        C521   1.436       .  S
In242       O244   2.255       .  S
In242       O245   2.255       .  S
In242       O253   2.260       .  S
In242       O247   2.246       .  S
In242       O249   2.253       .  S
In242       O250   2.258       .  S
In242       O251   2.248       .  S
In242       O254   2.239       .  S
C243        O249   1.259       .  A
C243        O251   1.258       .  A
C243        C527   1.436       .  S
O244        C252   1.259       .  A
O245        C252   1.258       .  A
C246        O253   1.260       .  A
C246        O247   1.258       .  A
C246        C518   1.439       .  S
C248        O250   1.260       .  A
C248        O254   1.258       .  A
C248        C515   1.435       .  S
C252        C520   1.440       .  S
In255       O257   2.252       .  S
In255       O258   2.255       .  S
In255       O266   2.263       .  S
In255       O260   2.245       .  S
In255       O262   2.251       .  S
In255       O263   2.262       .  S
In255       O264   2.245       .  S
In255       O267   2.236       .  S
C256        O262   1.259       .  A
C256        O264   1.258       .  A
C256        C514   1.435       .  S
O257        C265   1.259       .  A
O258        C265   1.259       .  A
C259        O266   1.260       .  A
C259        O260   1.257       .  A
C259        C509   1.438       .  S
C261        O263   1.261       .  A
C261        O267   1.257       .  A
C261        C522   1.436       .  S
C265        C512   1.438       .  S
In268       O270   2.240       .  S
In268       O271   2.257       .  S
In268       O279   2.259       .  S
In268       O273   2.246       .  S
In268       O275   2.251       .  S
In268       O276   2.256       .  S
In268       O277   2.248       .  S
In268       O280   2.255       .  S
C269        O275   1.259       .  A
C269        O277   1.258       .  A
C269        C513   1.435       .  S
O270        C278   1.258       .  A
O271        C278   1.260       .  A
C272        O279   1.260       .  A
C272        O273   1.258       .  A
C272        C506   1.438       .  S
C274        O276   1.258       .  A
C274        O280   1.259       .  A
C274        C507   1.440       .  S
C278        C516   1.435       .  S
C281        C287   1.534       .  S
C281        C285   1.540       .  S
C281        C906   1.541   1_554  S
C281        C596   1.477       .  S
C282        C905   1.541       .  S
C282        H289   1.086       .  S
C282        C283   1.368       .  D
C283        C908   1.534       .  S
C283        C526   1.445       .  S
C284        C288   1.531       .  S
C284        C286   1.534       .  S
C284        C907   1.534   1_554  S
C284        H290   1.112       .  S
C285        H291   1.086       .  S
C285        C286   1.368       .  D
C286        C511   1.444       .  S
C287        H292   1.087       .  S
C287        C288   1.360       .  D
C288        C504   1.438       .  S
C293        C294   1.542       .  S
C293        C299   1.534       .  S
C293        C921   1.541   1_554  S
C293        C592   1.478       .  S
C294        H301   1.086       .  S
C294        C295   1.369       .  D
C295        C296   1.533       .  S
C295        C508   1.445       .  S
C296        C300   1.530       .  S
C296        C922   1.534   1_554  S
C296        H302   1.112       .  S
C297        C917   1.541       .  S
C297        H303   1.086       .  S
C297        C298   1.369       .  D
C298        C920   1.534       .  S
C298        C519   1.445       .  S
C299        H304   1.088       .  S
C299        C300   1.360       .  D
C300        C501   1.438       .  S
In305       O307   2.242       .  S
In305       O308   2.253       .  S
In305       O316   2.246       .  S
In305       O310   2.250       .  S
In305       O312   2.256       .  S
In305       O313   2.237       .  S
In305       O314   2.237       .  S
In305       O317   2.254       .  S
C306        O312   1.261       .  A
C306        O314   1.258       .  A
C306        C493   1.435       .  S
O307        C315   1.258       .  A
O308        C315   1.259       .  A
C309        O316   1.258       .  A
C309        O310   1.258       .  A
C309        C495   1.433       .  S
C311        O313   1.258       .  A
C311        O317   1.260       .  A
C311        C499   1.433       .  S
C315        C497   1.434       .  S
In318       O320   2.247       .  S
In318       O321   2.253       .  S
In318       O329   2.257       .  S
In318       O323   2.246       .  S
In318       O325   2.252       .  S
In318       O326   2.260       .  S
In318       O327   2.241       .  S
In318       O330   2.233       .  S
C319        O325   1.260       .  A
C319        O327   1.259       .  A
C319        C498   1.435       .  S
O320        C328   1.258       .  A
O321        C328   1.258       .  A
C322        O329   1.260       .  A
C322        O323   1.259       .  A
C322        C524   1.438       .  S
C324        O326   1.261       .  A
C324        O330   1.258       .  A
C324        C489   1.435       .  S
C328        C491   1.436       .  S
In331       O333   2.247       .  S
In331       O334   2.250       .  S
In331       O342   2.255       .  S
In331       O336   2.239       .  S
In331       O338   2.252       .  S
In331       O339   2.257       .  S
In331       O340   2.242       .  S
In331       O343   2.240       .  S
C332        O338   1.259       .  A
C332        O340   1.258       .  A
C332        C485   1.434       .  S
O333        C341   1.258       .  A
O334        C341   1.258       .  A
C335        O342   1.260       .  A
C335        O336   1.258       .  A
C335        C487   1.434       .  S
C337        O339   1.260       .  A
C337        O343   1.258       .  A
C337        C494   1.435       .  S
C341        C483   1.434       .  S
In344       O346   2.234       .  S
In344       O347   2.262       .  S
In344       O355   2.258       .  S
In344       O349   2.245       .  S
In344       O351   2.251       .  S
In344       O352   2.253       .  S
In344       O353   2.242       .  S
In344       O356   2.248       .  S
C345        O351   1.260       .  A
C345        O353   1.259       .  A
C345        C486   1.434       .  S
O346        C354   1.257       .  A
O347        C354   1.260       .  A
C348        O355   1.260       .  A
C348        O349   1.258       .  A
C348        C510   1.438       .  S
C350        O352   1.258       .  A
C350        O356   1.258       .  A
C350        C481   1.436       .  S
C354        C490   1.435       .  S
C357        C363   1.538       .  S
C357        C361   1.537       .  S
C357        C982   1.536   1_554  S
C357        C557   1.468       .  S
C358        C981   1.536       .  S
C358        H365   1.086       .  S
C358        C359   1.364       .  D
C359        C984   1.534       .  S
C359        C496   1.439       .  S
C360        C364   1.532       .  S
C360        C362   1.534       .  S
C360        C983   1.534   1_554  S
C360        H366   1.112       .  S
C361        H367   1.086       .  S
C361        C362   1.365       .  D
C362        C484   1.440       .  S
C363        H368   1.087       .  S
C363        C364   1.363       .  D
C364        C477   1.441       .  S
C369        C370   1.537       .  S
C369        C375   1.532       .  S
C369        C997   1.537   1_554  S
C369        C570   1.469       .  S
C370        H377   1.086       .  S
C370        C371   1.367       .  D
C371        C372   1.537       .  S
C371        C482   1.442       .  S
C372        C376   1.534       .  S
C372        C998   1.537   1_554  S
C372        H378   1.112       .  S
C373        C993   1.537       .  S
C373        H379   1.086       .  S
C373        C374   1.366       .  D
C374        C996   1.537       .  S
C374        C492   1.442       .  S
C375        H380   1.087       .  S
C375        C376   1.358       .  D
C376        C480   1.440       .  S
In381       O383   2.237       .  S
In381       O384   2.260       .  S
In381       O392   2.258       .  S
In381       O386   2.246       .  S
In381       O388   2.254       .  S
In381       O389   2.255       .  S
In381       O390   2.239       .  S
In381       O393   2.252       .  S
C382        O388   1.260       .  A
C382        O390   1.258       .  A
C382        C475   1.434       .  S
O383        C391   1.258       .  A
O384        C391   1.261       .  A
C385        O392   1.260       .  A
C385        O386   1.259       .  A
C385        C517   1.439       .  S
C387        O389   1.259       .  A
C387        O393   1.259       .  A
C387        C474   1.438       .  S
C391        C471   1.436       .  S
In394       O396   2.251       .  S
In394       O397   2.256       .  S
In394       O405   2.259       .  S
In394       O399   2.246       .  S
In394       O401   2.254       .  S
In394       O402   2.261       .  S
In394       O403   2.239       .  S
In394       O406   2.236       .  S
C395        O401   1.261       .  A
C395        O403   1.258       .  A
C395        C468   1.434       .  S
O396        C404   1.258       .  A
O397        C404   1.259       .  A
C398        O405   1.260       .  A
C398        O399   1.259       .  A
C398        C505   1.438       .  S
C400        O402   1.261       .  A
C400        O406   1.258       .  A
C400        C472   1.436       .  S
C404        C469   1.438       .  S
C407        C413   1.533       .  S
C407        C411   1.538       .  S
C407       C1032   1.538   1_554  S
C407        C536   1.471       .  S
C408       C1031   1.538       .  S
C408        H415   1.086       .  S
C408        C409   1.367       .  D
C409       C1034   1.537       .  S
C409        C473   1.445       .  S
C410        C414   1.535       .  S
C410        C412   1.537       .  S
C410       C1033   1.537   1_554  S
C410        H416   1.112       .  S
C411        H417   1.086       .  S
C411        C412   1.367       .  D
C412        C470   1.444       .  S
C413        H418   1.087       .  S
C413        C414   1.359       .  D
C414        C463   1.442       .  S
In419       O421   2.254       .  S
In419       O422   2.238       .  S
In419       O430   2.246       .  S
In419       O424   2.253       .  S
In419       O426   2.255       .  S
In419       O427   2.247       .  S
In419       O428   2.241       .  S
In419       O431   2.245       .  S
C420        O426   1.260       .  A
C420        O428   1.258       .  A
C420        C460   1.436       .  S
O421        C429   1.259       .  A
O422        C429   1.258       .  A
C423        O430   1.258       .  A
C423        O424   1.259       .  A
C423        C462   1.435       .  S
C425        O427   1.259       .  A
C425        O431   1.259       .  A
C425        C476   1.434       .  S
C429        C500   1.433       .  S
In432       O434   2.245       .  S
In432       O435   2.248       .  S
In432       O443   2.246       .  S
In432       O437   2.254       .  S
In432       O439   2.256       .  S
In432       O440   2.238       .  S
In432       O441   2.240       .  S
In432       O444   2.254       .  S
C433        O439   1.261       .  A
C433        O441   1.258       .  A
C433        C459   1.436       .  S
O434        C442   1.259       .  A
O435        C442   1.259       .  A
C436        O443   1.258       .  A
C436        O437   1.259       .  A
C436        C458   1.435       .  S
C438        O440   1.258       .  A
C438        O444   1.259       .  A
C438        C488   1.434       .  S
C442        C467   1.434       .  S
C445        C446   1.537       .  S
C445        C451   1.536       .  S
C445       C1073   1.537   1_554  S
C445        C532   1.469       .  S
C446        H453   1.086       .  S
C446        C447   1.365       .  D
C447        C448   1.534       .  S
C447        C457   1.441       .  S
C448        C452   1.533       .  S
C448       C1074   1.535   1_554  S
C448        H454   1.112       .  S
C449       C1069   1.537       .  S
C449        H455   1.086       .  S
C449        C450   1.365       .  D
C450       C1072   1.535       .  S
C450        C461   1.440       .  S
C451        H456   1.087       .  S
C451        C452   1.362       .  D
C452        C466   1.442       .  S
C457        C458   1.205       .  T
C459        C460   1.206       .  T
C461        C462   1.205       .  T
C463        C464   1.206       .  T
C464        C465   1.413       .  S
C465        C466   1.206       .  T
C467        C468   1.205       .  T
C469        C470   1.207       .  T
C471        C472   1.206       .  T
C473        C474   1.208       .  T
C475        C476   1.205       .  T
C477        C478   1.205       .  T
C478        C479   1.411       .  S
C479        C480   1.205       .  T
C481        C482   1.206       .  T
C483        C484   1.205       .  T
C485        C486   1.205       .  T
C487        C488   1.205       .  T
C489        C490   1.205       .  T
C491        C492   1.206       .  T
C493        C494   1.206       .  T
C495        C496   1.204       .  T
C497        C498   1.205       .  T
C499        C500   1.205       .  T
C501        C502   1.203       .  T
C502        C503   1.408       .  S
C503        C504   1.203       .  T
C505        C506   1.208       .  T
C507        C508   1.208       .  T
C509        C510   1.208       .  T
C511        C512   1.207       .  T
C513        C514   1.205       .  T
C515        C516   1.205       .  T
C517        C518   1.208       .  T
C519        C520   1.208       .  T
C521        C522   1.206       .  T
C523        C524   1.208       .  T
C525        C526   1.208       .  T
C527        C528   1.206       .  T
C529        C530   1.206       .  T
C530        C531   1.412   1_655  S
C531        C532   1.206       .  T
C533        C534   1.208       .  T
C534        C535   1.414   1_655  S
C535        C536   1.207       .  T
C537        C538   1.205       .  T
C538        C539   1.411       .  S
C539        C540   1.205       .  T
C541        C542   1.206       .  T
C543        C544   1.207       .  T
C545        C546   1.206       .  T
C547        C548   1.205       .  T
C549        C550   1.206       .  T
C551        C552   1.206       .  T
C553        C554   1.207       .  T
C555        C556   1.206       .  T
C557        C558   1.206       .  T
C558        C559   1.411       .  S
C559        C560   1.205   1_565  T
C561        C562   1.206       .  T
C563        C564   1.206       .  T
C565        C566   1.206       .  T
C567        C568   1.207       .  T
C568        C569   1.413   1_545  S
C569        C570   1.206       .  T
C571        C572   1.205       .  T
C572        C573   1.411       .  S
C573        C574   1.205       .  T
C575        C576   1.205       .  T
C577        C578   1.206       .  T
C579        C580   1.205       .  T
C581        C582   1.205       .  T
C583        C584   1.205       .  T
C585        C586   1.205       .  T
C587        C588   1.205       .  T
C589        C590   1.212       .  T
C590        C591   1.422       .  S
C591        C592   1.212       .  T
C593        C594   1.211       .  T
C594        C595   1.420       .  S
C595        C596   1.211       .  T
C597        C598   1.204       .  T
C598        C599   1.409       .  S
C599        C600   1.204       .  T
C601        C602   1.208       .  T
C603        C604   1.208       .  T
C605        C606   1.208       .  T
C607        C608   1.207       .  T
C609        C610   1.208       .  T
C611        C612   1.207       .  T
C613        C614   1.208       .  T
C615        C616   1.209       .  T
C617        C618   1.205       .  T
C619        C620   1.207       .  T
C621        C622   1.206       .  T
C623        C624   1.208       .  T
In625       O627   2.251       .  S
In625       O628   2.254       .  S
In625       O636   2.260       .  S
In625       O630   2.245       .  S
In625       O632   2.251       .  S
In625       O633   2.257       .  S
In625       O634   2.248       .  S
In625       O637   2.236       .  S
C626        O632   1.260       .  A
C626        O634   1.259       .  A
C626       C1245   1.436       .  S
O627        C635   1.259       .  A
O628        C635   1.259       .  A
C629        O636   1.260       .  A
C629        O630   1.259       .  A
C629       C1247   1.439       .  S
C631        O633   1.261       .  A
C631        O637   1.257       .  A
C631       C1241   1.434       .  S
C635       C1243   1.438       .  S
In638       O640   2.239       .  S
In638       O641   2.264       .  S
In638       O649   2.262       .  S
In638       O643   2.247       .  S
In638       O645   2.253       .  S
In638       O646   2.256       .  S
In638       O647   2.245       .  S
In638       O650   2.252       .  S
C639        O645   1.260       .  A
C639        O647   1.258       .  A
C639       C1246   1.436       .  S
O640        C648   1.258       .  A
O641        C648   1.261       .  A
C642        O649   1.260       .  A
C642        O643   1.258       .  A
C642       C1238   1.439       .  S
C644        O646   1.259       .  A
C644        O650   1.259       .  A
C644       C1239   1.440       .  S
C648       C1236   1.438       .  S
In651       O653   2.238       .  S
In651       O654   2.257       .  S
In651       O662   2.261       .  S
In651       O656   2.246       .  S
In651       O658   2.252       .  S
In651       O659   2.254       .  S
In651       O660   2.251       .  S
In651       O663   2.252       .  S
C652        O658   1.259       .  A
C652        O660   1.259       .  A
C652       C1232   1.437       .  S
O653        C661   1.257       .  A
O654        C661   1.260       .  A
C655        O662   1.260       .  A
C655        O656   1.258       .  A
C655       C1233   1.439       .  S
C657        O659   1.259       .  A
C657        O663   1.259       .  A
C657       C1229   1.439       .  S
C661       C1242   1.434       .  S
In664       O666   2.251       .  S
In664       O667   2.254       .  S
In664       O675   2.263       .  S
In664       O669   2.248       .  S
In664       O671   2.254       .  S
In664       O672   2.263       .  S
In664       O673   2.246       .  S
In664       O676   2.239       .  S
C665        O671   1.260       .  A
C665        O673   1.259       .  A
C665       C1231   1.437       .  S
O666        C674   1.259       .  A
O667        C674   1.259       .  A
C668        O675   1.260       .  A
C668        O669   1.258       .  A
C668       C1225   1.439       .  S
C670        O672   1.261       .  A
C670        O676   1.258       .  A
C670       C1235   1.438       .  S
C674       C1228   1.439       .  S
C677        C678   1.541       .  S
C677        C683   1.534       .  S
C677       C1217   1.476       .  S
C678        H685   1.086       .  S
C678        C679   1.368       .  D
C679        C680   1.534       .  S
C679       C1230   1.444       .  S
C680        C684   1.531       .  S
C680        H686   1.112       .  S
C681        H687   1.086       .  S
C681        C682   1.368       .  D
C682       C1244   1.444       .  S
C683        H688   1.088       .  S
C683        C684   1.360       .  D
C684       C1221   1.438       .  S
C689        C695   1.534       .  S
C689        C693   1.541       .  S
C689       C1213   1.478       .  S
C690        H697   1.086       .  S
C690        C691   1.369       .  D
C691       C1240   1.446       .  S
C692        C696   1.531       .  S
C692        C694   1.534       .  S
C692        H698   1.112       .  S
C693        H699   1.086       .  S
C693        C694   1.368       .  D
C694       C1227   1.445       .  S
C695        H700   1.087       .  S
C695        C696   1.360       .  D
C696       C1224   1.438       .  S
In701       O703   2.237       .  S
In701       O704   2.254       .  S
In701       O712   2.253       .  S
In701       O706   2.239       .  S
In701       O708   2.251       .  S
In701       O709   2.250       .  S
In701       O710   2.243       .  S
In701       O713   2.248       .  S
C702        O708   1.259       .  A
C702        O710   1.258       .  A
C702       C1210   1.434       .  S
O703        C711   1.258       .  A
O704        C711   1.260       .  A
C705        O712   1.259       .  A
C705        O706   1.258       .  A
C705       C1211   1.434       .  S
C707        O709   1.258       .  A
C707        O713   1.258       .  A
C707       C1208   1.435       .  S
C711       C1206   1.434       .  S
In714       O716   2.247       .  S
In714       O717   2.252       .  S
In714       O725   2.255       .  S
In714       O719   2.238       .  S
In714       O721   2.251       .  S
In714       O722   2.256       .  S
In714       O723   2.244       .  S
In714       O726   2.237       .  S
C715        O721   1.259       .  A
C715        O723   1.258       .  A
C715       C1200   1.434       .  S
O716        C724   1.258       .  A
O717        C724   1.258       .  A
C718        O725   1.260       .  A
C718        O719   1.258       .  A
C718       C1203   1.435       .  S
C720        O722   1.260       .  A
C720        O726   1.258       .  A
C720       C1205   1.434       .  S
C724       C1201   1.435       .  S
C727        C733   1.537       .  S
C727        C731   1.537       .  S
C727       C1191   1.470       .  S
C728        H735   1.086       .  S
C728        C729   1.366       .  D
C729       C1207   1.441       .  S
C730        C734   1.532       .  S
C730        C732   1.534       .  S
C730        H736   1.112       .  S
C731        H737   1.086       .  S
C731        C732   1.366       .  D
C732       C1202   1.441       .  S
C733        H738   1.087       .  S
C733        C734   1.362       .  D
C734       C1195   1.441       .  S
In739       O741   2.249       .  S
In739       O742   2.253       .  S
In739       O750   2.260       .  S
In739       O744   2.243       .  S
In739       O746   2.251       .  S
In739       O747   2.262       .  S
In739       O748   2.242       .  S
In739       O751   2.236       .  S
C740        O746   1.260       .  A
C740        O748   1.258       .  A
C740       C1209   1.434       .  S
O741        C749   1.258       .  A
O742        C749   1.259       .  A
C743        O750   1.260       .  A
C743        O744   1.258       .  A
C743       C1237   1.439       .  S
C745        O747   1.261       .  A
C745        O751   1.258       .  A
C745       C1187   1.436       .  S
C749       C1190   1.437       .  S
In752       O754   2.236       .  S
In752       O755   2.261       .  S
In752       O763   2.260       .  S
In752       O757   2.244       .  S
In752       O759   2.252       .  S
In752       O760   2.254       .  S
In752       O761   2.240       .  S
In752       O764   2.248       .  S
C753        O759   1.260       .  A
C753        O761   1.259       .  A
C753       C1199   1.434       .  S
O754        C762   1.258       .  A
O755        C762   1.261       .  A
C756        O763   1.260       .  A
C756        O757   1.258       .  A
C756       C1226   1.439       .  S
C758        O760   1.259       .  A
C758        O764   1.258       .  A
C758       C1185   1.436       .  S
C762       C1188   1.436       .  S
C765        C766   1.536       .  S
C765        C771   1.532       .  S
C765       C1184   1.467       .  S
C766        H773   1.086       .  S
C766        C767   1.366       .  D
C767        C768   1.537       .  S
C767       C1186   1.442       .  S
C768        C772   1.535       .  S
C768        H774   1.112       .  S
C769        H775   1.086       .  S
C769        C770   1.367       .  D
C770       C1189   1.443       .  S
C771        H776   1.087       .  S
C771        C772   1.358       .  D
C772       C1198   1.440       .  S
In777       O779   2.237       .  S
In777       O780   2.261       .  S
In777       O788   2.262       .  S
In777       O782   2.247       .  S
In777       O784   2.257       .  S
In777       O785   2.254       .  S
In777       O786   2.243       .  S
In777       O789   2.251       .  S
C778        O784   1.260       .  A
C778        O786   1.258       .  A
C778       C1179   1.436       .  S
O779        C787   1.258       .  A
O780        C787   1.261       .  A
C781        O788   1.260       .  A
C781        O782   1.258       .  A
C781       C1248   1.440       .  S
C783        O785   1.259       .  A
C783        O789   1.259       .  A
C783       C1178   1.437       .  S
C787       C1176   1.436       .  S
In790       O792   2.254       .  S
In790       O793   2.236       .  S
In790       O801   2.248       .  S
In790       O795   2.252       .  S
In790       O797   2.256       .  S
In790       O798   2.252       .  S
In790       O799   2.237       .  S
In790       O802   2.245       .  S
C791        O797   1.260       .  A
C791        O799   1.257       .  A
C791       C1172   1.433       .  S
O792        C800   1.260       .  A
O793        C800   1.258       .  A
C794        O801   1.258       .  A
C794        O795   1.258       .  A
C794       C1173   1.435       .  S
C796        O798   1.259       .  A
C796        O802   1.259       .  A
C796       C1180   1.436       .  S
C800       C1212   1.434       .  S
In803       O805   2.251       .  S
In803       O806   2.253       .  S
In803       O814   2.261       .  S
In803       O808   2.247       .  S
In803       O810   2.256       .  S
In803       O811   2.261       .  S
In803       O812   2.241       .  S
In803       O815   2.237       .  S
C804        O810   1.260       .  A
C804        O812   1.258       .  A
C804       C1169   1.435       .  S
O805        C813   1.258       .  A
O806        C813   1.258       .  A
C807        O814   1.260       .  A
C807        O808   1.259       .  A
C807       C1234   1.440       .  S
C809        O811   1.261       .  A
C809        O815   1.258       .  A
C809       C1175   1.436       .  S
C813       C1167   1.437       .  S
In816       O818   2.245       .  S
In816       O819   2.250       .  S
In816       O827   2.248       .  S
In816       O821   2.252       .  S
In816       O823   2.256       .  S
In816       O824   2.238       .  S
In816       O825   2.238       .  S
In816       O828   2.255       .  S
C817        O823   1.260       .  A
C817        O825   1.257       .  A
C817       C1171   1.433       .  S
O818        C826   1.259       .  A
O819        C826   1.259       .  A
C820        O827   1.259       .  A
C820        O821   1.258       .  A
C820       C1165   1.435       .  S
C822        O824   1.258       .  A
C822        O828   1.260       .  A
C822       C1204   1.434       .  S
C826       C1170   1.435       .  S
C829        C830   1.538       .  S
C829        C835   1.537       .  S
C829       C1157   1.471       .  S
C830        H837   1.086       .  S
C830        C831   1.366       .  D
C831        C832   1.534       .  S
C831       C1166   1.441       .  S
C832        C836   1.532       .  S
C832        H838   1.112       .  S
C833        H839   1.086       .  S
C833        C834   1.366       .  D
C834       C1174   1.441       .  S
C835        H840   1.087       .  S
C835        C836   1.362       .  D
C836       C1161   1.441       .  S
C841        C847   1.533       .  S
C841        C845   1.537       .  S
C841       C1153   1.469       .  S
C842        H849   1.086       .  S
C842        C843   1.367       .  D
C843       C1177   1.443       .  S
C844        C848   1.534       .  S
C844        C846   1.536       .  S
C844        H850   1.112       .  S
C845        H851   1.086       .  S
C845        C846   1.367       .  D
C846       C1168   1.443       .  S
C847        H852   1.087       .  S
C847        C848   1.359       .  D
C848       C1164   1.441       .  S
In853       O855   2.238       .  S
In853       O856   2.262       .  S
In853       O864   2.264       .  S
In853       O858   2.244       .  S
In853       O860   2.251       .  S
In853       O861   2.254       .  S
In853       O862   2.247       .  S
In853       O865   2.252       .  S
C854        O860   1.259       .  A
C854        O862   1.258       .  A
C854       C1152   1.435       .  S
O855        C863   1.258       .  A
O856        C863   1.260       .  A
C857        O864   1.260       .  A
C857        O858   1.257       .  A
C857       C1147   1.438       .  S
C859        O861   1.259       .  A
C859        O865   1.259       .  A
C859       C1149   1.439       .  S
C863       C1145   1.436       .  S
In866       O868   2.255       .  S
In866       O869   2.255       .  S
In866       O877   2.260       .  S
In866       O871   2.246       .  S
In866       O873   2.253       .  S
In866       O874   2.258       .  S
In866       O875   2.248       .  S
In866       O878   2.239       .  S
C867        O873   1.259       .  A
C867        O875   1.258       .  A
C867       C1151   1.436       .  S
O868        C876   1.259       .  A
O869        C876   1.258       .  A
C870        O877   1.260       .  A
C870        O871   1.258       .  A
C870       C1142   1.439       .  S
C872        O874   1.260       .  A
C872        O878   1.258       .  A
C872       C1139   1.435       .  S
C876       C1144   1.440       .  S
In879       O881   2.252       .  S
In879       O882   2.255       .  S
In879       O890   2.263       .  S
In879       O884   2.245       .  S
In879       O886   2.251       .  S
In879       O887   2.262       .  S
In879       O888   2.245       .  S
In879       O891   2.236       .  S
C880        O886   1.259       .  A
C880        O888   1.258       .  A
C880       C1138   1.435       .  S
O881        C889   1.259       .  A
O882        C889   1.259       .  A
C883        O890   1.260       .  A
C883        O884   1.257       .  A
C883       C1133   1.438       .  S
C885        O887   1.261       .  A
C885        O891   1.257       .  A
C885       C1146   1.436       .  S
C889       C1136   1.438       .  S
In892       O894   2.240       .  S
In892       O895   2.257       .  S
In892       O903   2.259       .  S
In892       O897   2.246       .  S
In892       O899   2.251       .  S
In892       O900   2.256       .  S
In892       O901   2.248       .  S
In892       O904   2.255       .  S
C893        O899   1.259       .  A
C893        O901   1.258       .  A
C893       C1137   1.435       .  S
O894        C902   1.258       .  A
O895        C902   1.260       .  A
C896        O903   1.260       .  A
C896        O897   1.258       .  A
C896       C1130   1.438       .  S
C898        O900   1.258       .  A
C898        O904   1.259       .  A
C898       C1131   1.440       .  S
C902       C1140   1.435       .  S
C905        C911   1.534       .  S
C905        C909   1.540       .  S
C905       C1220   1.477       .  S
C906        H913   1.086       .  S
C906        C907   1.368       .  D
C907       C1150   1.445       .  S
C908        C912   1.531       .  S
C908        C910   1.534       .  S
C908        H914   1.112       .  S
C909        H915   1.086       .  S
C909        C910   1.368       .  D
C910       C1135   1.444       .  S
C911        H916   1.087       .  S
C911        C912   1.360       .  D
C912       C1128   1.438       .  S
C917        C918   1.542       .  S
C917        C923   1.534       .  S
C917       C1216   1.478       .  S
C918        H925   1.086       .  S
C918        C919   1.369       .  D
C919        C920   1.533       .  S
C919       C1132   1.445       .  S
C920        C924   1.530       .  S
C920        H926   1.112       .  S
C921        H927   1.086       .  S
C921        C922   1.369       .  D
C922       C1143   1.445       .  S
C923        H928   1.088       .  S
C923        C924   1.360       .  D
C924       C1125   1.438       .  S
In929       O931   2.242       .  S
In929       O932   2.253       .  S
In929       O940   2.246       .  S
In929       O934   2.250       .  S
In929       O936   2.256       .  S
In929       O937   2.237       .  S
In929       O938   2.237       .  S
In929       O941   2.254       .  S
C930        O936   1.261       .  A
C930        O938   1.258       .  A
C930       C1117   1.435       .  S
O931        C939   1.258       .  A
O932        C939   1.259       .  A
C933        O940   1.258       .  A
C933        O934   1.258       .  A
C933       C1119   1.433       .  S
C935        O937   1.258       .  A
C935        O941   1.260       .  A
C935       C1123   1.433       .  S
C939       C1121   1.434       .  S
In942       O944   2.247       .  S
In942       O945   2.253       .  S
In942       O953   2.257       .  S
In942       O947   2.246       .  S
In942       O949   2.252       .  S
In942       O950   2.260       .  S
In942       O951   2.241       .  S
In942       O954   2.233       .  S
C943        O949   1.260       .  A
C943        O951   1.259       .  A
C943       C1122   1.435       .  S
O944        C952   1.258       .  A
O945        C952   1.258       .  A
C946        O953   1.260       .  A
C946        O947   1.259       .  A
C946       C1148   1.438       .  S
C948        O950   1.261       .  A
C948        O954   1.258       .  A
C948       C1113   1.435       .  S
C952       C1115   1.436       .  S
In955       O957   2.247       .  S
In955       O958   2.250       .  S
In955       O966   2.255       .  S
In955       O960   2.239       .  S
In955       O962   2.252       .  S
In955       O963   2.257       .  S
In955       O964   2.242       .  S
In955       O967   2.240       .  S
C956        O962   1.259       .  A
C956        O964   1.258       .  A
C956       C1109   1.434       .  S
O957        C965   1.258       .  A
O958        C965   1.258       .  A
C959        O966   1.260       .  A
C959        O960   1.258       .  A
C959       C1111   1.434       .  S
C961        O963   1.260       .  A
C961        O967   1.258       .  A
C961       C1118   1.435       .  S
C965       C1107   1.434       .  S
In968       O970   2.234       .  S
In968       O971   2.262       .  S
In968       O979   2.258       .  S
In968       O973   2.245       .  S
In968       O975   2.251       .  S
In968       O976   2.253       .  S
In968       O977   2.242       .  S
In968       O980   2.248       .  S
C969        O975   1.260       .  A
C969        O977   1.259       .  A
C969       C1110   1.434       .  S
O970        C978   1.257       .  A
O971        C978   1.260       .  A
C972        O979   1.260       .  A
C972        O973   1.258       .  A
C972       C1134   1.438       .  S
C974        O976   1.258       .  A
C974        O980   1.258       .  A
C974       C1105   1.436       .  S
C978       C1114   1.435       .  S
C981        C987   1.538       .  S
C981        C985   1.537       .  S
C981       C1181   1.468       .  S
C982        H989   1.086       .  S
C982        C983   1.364       .  D
C983       C1120   1.439       .  S
C984        C988   1.532       .  S
C984        C986   1.534       .  S
C984        H990   1.112       .  S
C985        H991   1.086       .  S
C985        C986   1.365       .  D
C986       C1108   1.440       .  S
C987        H992   1.087       .  S
C987        C988   1.363       .  D
C988       C1101   1.441       .  S
C993        C994   1.537       .  S
C993        C999   1.532       .  S
C993       C1194   1.469       .  S
C994       H1001   1.086       .  S
C994        C995   1.367       .  D
C995        C996   1.537       .  S
C995       C1106   1.442       .  S
C996       C1000   1.534       .  S
C996       H1002   1.112       .  S
C997       H1003   1.086       .  S
C997        C998   1.366       .  D
C998       C1116   1.442       .  S
C999       H1004   1.087       .  S
C999       C1000   1.358       .  D
C1000      C1104   1.440       .  S
In1005     O1007   2.237       .  S
In1005     O1008   2.260       .  S
In1005     O1016   2.258       .  S
In1005     O1010   2.246       .  S
In1005     O1012   2.254       .  S
In1005     O1013   2.255       .  S
In1005     O1014   2.239       .  S
In1005     O1017   2.252       .  S
C1006      O1012   1.260       .  A
C1006      O1014   1.258       .  A
C1006      C1099   1.434       .  S
O1007      C1015   1.258       .  A
O1008      C1015   1.261       .  A
C1009      O1016   1.260       .  A
C1009      O1010   1.259       .  A
C1009      C1141   1.439       .  S
C1011      O1013   1.259       .  A
C1011      O1017   1.259       .  A
C1011      C1098   1.438       .  S
C1015      C1095   1.436       .  S
In1018     O1020   2.251       .  S
In1018     O1021   2.256       .  S
In1018     O1029   2.259       .  S
In1018     O1023   2.246       .  S
In1018     O1025   2.254       .  S
In1018     O1026   2.261       .  S
In1018     O1027   2.239       .  S
In1018     O1030   2.236       .  S
C1019      O1025   1.261       .  A
C1019      O1027   1.258       .  A
C1019      C1092   1.434       .  S
O1020      C1028   1.258       .  A
O1021      C1028   1.259       .  A
C1022      O1029   1.260       .  A
C1022      O1023   1.259       .  A
C1022      C1129   1.438       .  S
C1024      O1026   1.261       .  A
C1024      O1030   1.258       .  A
C1024      C1096   1.436       .  S
C1028      C1093   1.438       .  S
C1031      C1037   1.533       .  S
C1031      C1035   1.538       .  S
C1031      C1160   1.471       .  S
C1032      H1039   1.086       .  S
C1032      C1033   1.367       .  D
C1033      C1097   1.445       .  S
C1034      C1038   1.535       .  S
C1034      C1036   1.537       .  S
C1034      H1040   1.112       .  S
C1035      H1041   1.086       .  S
C1035      C1036   1.367       .  D
C1036      C1094   1.444       .  S
C1037      H1042   1.087       .  S
C1037      C1038   1.359       .  D
C1038      C1087   1.442       .  S
In1043     O1045   2.254       .  S
In1043     O1046   2.238       .  S
In1043     O1054   2.246       .  S
In1043     O1048   2.253       .  S
In1043     O1050   2.255       .  S
In1043     O1051   2.247       .  S
In1043     O1052   2.241       .  S
In1043     O1055   2.245       .  S
C1044      O1050   1.260       .  A
C1044      O1052   1.258       .  A
C1044      C1084   1.436       .  S
O1045      C1053   1.259       .  A
O1046      C1053   1.258       .  A
C1047      O1054   1.258       .  A
C1047      O1048   1.259       .  A
C1047      C1086   1.435       .  S
C1049      O1051   1.259       .  A
C1049      O1055   1.259       .  A
C1049      C1100   1.434       .  S
C1053      C1124   1.433       .  S
In1056     O1058   2.245       .  S
In1056     O1059   2.248       .  S
In1056     O1067   2.246       .  S
In1056     O1061   2.254       .  S
In1056     O1063   2.256       .  S
In1056     O1064   2.238       .  S
In1056     O1065   2.240       .  S
In1056     O1068   2.254       .  S
C1057      O1063   1.261       .  A
C1057      O1065   1.258       .  A
C1057      C1083   1.436       .  S
O1058      C1066   1.259       .  A
O1059      C1066   1.259       .  A
C1060      O1067   1.258       .  A
C1060      O1061   1.259       .  A
C1060      C1082   1.435       .  S
C1062      O1064   1.258       .  A
C1062      O1068   1.259       .  A
C1062      C1112   1.434       .  S
C1066      C1091   1.434       .  S
C1069      C1070   1.537       .  S
C1069      C1075   1.536       .  S
C1069      C1156   1.469       .  S
C1070      H1077   1.086       .  S
C1070      C1071   1.365       .  D
C1071      C1072   1.534       .  S
C1071      C1081   1.441       .  S
C1072      C1076   1.533       .  S
C1072      H1078   1.112       .  S
C1073      H1079   1.086       .  S
C1073      C1074   1.365       .  D
C1074      C1085   1.440       .  S
C1075      H1080   1.087       .  S
C1075      C1076   1.362       .  D
C1076      C1090   1.442       .  S
C1081      C1082   1.205       .  T
C1083      C1084   1.206       .  T
C1085      C1086   1.205       .  T
C1087      C1088   1.206       .  T
C1088      C1089   1.413       .  S
C1089      C1090   1.206       .  T
C1091      C1092   1.205       .  T
C1093      C1094   1.207       .  T
C1095      C1096   1.206       .  T
C1097      C1098   1.208       .  T
C1099      C1100   1.205       .  T
C1101      C1102   1.205       .  T
C1102      C1103   1.411       .  S
C1103      C1104   1.205       .  T
C1105      C1106   1.206       .  T
C1107      C1108   1.205       .  T
C1109      C1110   1.205       .  T
C1111      C1112   1.205       .  T
C1113      C1114   1.205       .  T
C1115      C1116   1.206       .  T
C1117      C1118   1.206       .  T
C1119      C1120   1.204       .  T
C1121      C1122   1.205       .  T
C1123      C1124   1.205       .  T
C1125      C1126   1.203       .  T
C1126      C1127   1.408       .  S
C1127      C1128   1.203       .  T
C1129      C1130   1.208       .  T
C1131      C1132   1.208       .  T
C1133      C1134   1.208       .  T
C1135      C1136   1.207       .  T
C1137      C1138   1.205       .  T
C1139      C1140   1.205       .  T
C1141      C1142   1.208       .  T
C1143      C1144   1.208       .  T
C1145      C1146   1.206       .  T
C1147      C1148   1.208       .  T
C1149      C1150   1.208       .  T
C1151      C1152   1.206       .  T
C1153      C1154   1.206       .  T
C1154      C1155   1.412   1_655  S
C1155      C1156   1.206       .  T
C1157      C1158   1.208       .  T
C1158      C1159   1.414   1_655  S
C1159      C1160   1.207       .  T
C1161      C1162   1.205       .  T
C1162      C1163   1.411       .  S
C1163      C1164   1.205       .  T
C1165      C1166   1.206       .  T
C1167      C1168   1.207       .  T
C1169      C1170   1.206       .  T
C1171      C1172   1.205       .  T
C1173      C1174   1.206       .  T
C1175      C1176   1.206       .  T
C1177      C1178   1.207       .  T
C1179      C1180   1.206       .  T
C1181      C1182   1.206       .  T
C1182      C1183   1.411       .  S
C1183      C1184   1.205   1_565  T
C1185      C1186   1.206       .  T
C1187      C1188   1.206       .  T
C1189      C1190   1.206       .  T
C1191      C1192   1.207       .  T
C1192      C1193   1.413   1_545  S
C1193      C1194   1.206       .  T
C1195      C1196   1.205       .  T
C1196      C1197   1.411       .  S
C1197      C1198   1.205       .  T
C1199      C1200   1.205       .  T
C1201      C1202   1.206       .  T
C1203      C1204   1.205       .  T
C1205      C1206   1.205       .  T
C1207      C1208   1.205       .  T
C1209      C1210   1.205       .  T
C1211      C1212   1.205       .  T
C1213      C1214   1.212       .  T
C1214      C1215   1.422       .  S
C1215      C1216   1.212       .  T
C1217      C1218   1.211       .  T
C1218      C1219   1.420       .  S
C1219      C1220   1.211       .  T
C1221      C1222   1.204       .  T
C1222      C1223   1.409       .  S
C1223      C1224   1.204       .  T
C1225      C1226   1.208       .  T
C1227      C1228   1.208       .  T
C1229      C1230   1.208       .  T
C1231      C1232   1.207       .  T
C1233      C1234   1.208       .  T
C1235      C1236   1.207       .  T
C1237      C1238   1.208       .  T
C1239      C1240   1.209       .  T
C1241      C1242   1.205       .  T
C1243      C1244   1.207       .  T
C1245      C1246   1.206       .  T
C1247      C1248   1.208       .  T
