geometry optimzed in LAMMPS
_audit_creation_date              2020-11-30 
_audit_creation_method            'lammps2cif' 
_symmetry_space_group_name_H-M    'P1' 
_symmetry_Int_Tables_number       1 
_symmetry_cell_setting            triclinic 
loop_ 
_symmetry_equiv_pos_as_xyz 
  x,y,z 
_cell_length_a                    40.38149026 
_cell_length_b                    24.560019168964185 
_cell_length_c                    24.10723041329919 
_cell_angle_alpha                 91.28921821769092 
_cell_angle_beta                  90.52412116527171 
_cell_angle_gamma                 90.63879841220145 
loop_ 
_atom_site_label 
_atom_site_type_symbol 
_atom_site_fract_x 
_atom_site_fract_y 
_atom_site_fract_z 
_atom_site_charge 
C1          C  0.00783719  0.08442344  0.17048763     0.05800
C2          C  0.02491438  0.07516426  0.12068741    -0.10300
C3          C  0.05348767  0.10514352  0.10860553     0.03300
C4          C  0.06497303  0.14516668  0.14697537    -0.08800
C5          C  0.04863103  0.15361945  0.19777820     0.05800
C6          C  0.02053581  0.12212912  0.20987238    -0.08200
H7          H  0.01590602  0.04440116  0.09113172     0.11400
H8          H  0.08728682  0.16827434  0.13842529     0.09000
H9          H  0.00789582  0.12839111  0.24893761     0.08800
O10         O  0.89991406  0.90939989  0.00493984    -0.75800
C11         C  0.80433524  0.96772123  0.07456186     0.85300
O12         O  0.92676470  0.97209850  0.18532114    -0.76900
O13         O  0.81931528  0.87571111  0.23563962    -0.78400
O14         O  0.85369514  0.75996064  0.07852642    -0.78200
O15         O  0.91708022  0.82644109  0.02602492    -0.76800
Zn16       Zn  0.87752232  0.93802467  0.07373448     1.55700
O17         O  0.80768073  0.79545346  0.11445493    -0.78200
Cd18       Cd  0.89171423  0.81267693  0.09830704     1.59700
Cd19       Cd  0.89881857  0.90252790  0.19593456     1.59600
O20         O  0.92355951  0.77563893  0.15372322    -0.78200
O21         O  0.87268431  0.88175241  0.12844454    -1.88700
Cd22       Cd  0.82478908  0.87109475  0.14834370     1.59900
O23         O  0.93120372  0.84230173  0.21679246    -0.78100
O24         O  0.79734281  0.93333074  0.11191389    -0.76800
C25         C  0.92818973  0.00331177  0.14394872     0.85700
C26         C  0.91632830  0.86668882  0.99364680     0.85400
O27         O  0.83343227  0.97205406  0.05476457    -0.75800
C28         C  0.82259982  0.75801070  0.08689661     0.86200
O29         O  0.90967673  0.99603228  0.10135492    -0.75800
C30         C  0.93711783  0.79464647  0.19810074     0.86300
C31         C  0.83930817  0.89292594  0.27392961     0.86700
O32         O  0.86873355  0.90856358  0.26369649    -0.78300
C33         C  0.76511214  0.55495722  0.98107896     0.05800
C34         C  0.77426704  0.54809707  0.92519725    -0.10300
C35         C  0.79652628  0.58455098  0.90098049     0.03300
C36         C  0.80973931  0.62794182  0.93318633    -0.08800
C37         C  0.80035162  0.63636051  0.98859345     0.05800
C38         C  0.77775700  0.59992117  0.01242618    -0.08200
H39         H  0.76442371  0.51391950  0.90078078     0.11400
H40         H  0.82716091  0.65594309  0.91465606     0.09000
H41         H  0.77145313  0.60476124  0.05581339     0.08800
C42         C  0.01417429  0.59971373  0.29477327     0.05800
C43         C  0.00036069  0.60437193  0.34811696    -0.10300
C44         C  0.97607616  0.64317578  0.35974875     0.03300
C45         C  0.96589070  0.67792901  0.31820062    -0.08800
C46         C  0.97858016  0.67295288  0.26420883     0.05800
C47         C  0.00220948  0.63280266  0.25229714    -0.08200
H48         H  0.00827265  0.57748812  0.38059592     0.11400
H49         H  0.94666400  0.70715206  0.32738650     0.09000
H50         H  0.01198073  0.62854190  0.21072714     0.08800
O51         O  0.10715528  0.41430573  0.45598785    -0.75800
C52         C  0.20733752  0.47015599  0.40746783     0.85300
O53         O  0.08663910  0.46954444  0.28110198    -0.76900
O54         O  0.19819687  0.38600411  0.23667659    -0.78400
O55         O  0.16479047  0.26703317  0.39131558    -0.78200
O56         O  0.09588711  0.32678271  0.43767471    -0.76800
Zn57       Zn  0.13445903  0.44135096  0.39332172     1.55700
O58         O  0.20883681  0.30525657  0.35173518    -0.78200
Cd59       Cd  0.12503023  0.31378069  0.36805103     1.59700
Cd60       Cd  0.11641504  0.40119735  0.27018890     1.59600
O61         O  0.09816685  0.27090341  0.30711119    -0.78200
O62         O  0.14178302  0.38428529  0.33883070    -1.88700
Cd63       Cd  0.19026355  0.37878323  0.32217226     1.59900
O64         O  0.08874604  0.33407665  0.24386605    -0.78100
O65         O  0.21609154  0.43995376  0.36641980    -0.76800
C66         C  0.08760461  0.50529916  0.32036667     0.85700
C67         C  0.09273187  0.36983232  0.46767772     0.85400
O68         O  0.17743641  0.47224485  0.42353543    -0.75800
C69         C  0.19569959  0.26796261  0.38074997     0.86200
O70         O  0.10683093  0.50093078  0.36210576    -0.75800
C71         C  0.08574058  0.28560899  0.26100409     0.86300
C72         C  0.17891051  0.40053862  0.19739907     0.86700
O73         O  0.14856239  0.41167697  0.20538135    -0.78300
C74         C  0.27174124  0.09037023  0.48572048     0.05800
C75         C  0.25297622  0.12610516  0.45336522    -0.10300
C76         C  0.22715185  0.15613606  0.47748091     0.03300
C77         C  0.21968514  0.14862958  0.53349049    -0.08800
C78         C  0.23830340  0.11340607  0.56627574     0.05800
C79         C  0.26504964  0.08573581  0.54255737    -0.08200
H80         H  0.25817981  0.12970922  0.40959314     0.11400
H81         H  0.19940211  0.17095895  0.55197734     0.09000
H82         H  0.27936390  0.05811706  0.56745036     0.08800
C83         C  0.00355254  0.36823948  0.65726209     0.05800
C84         C  0.01816235  0.36348559  0.60455521    -0.10300
C85         C  0.04389795  0.32664450  0.59512047     0.03300
C86         C  0.05415021  0.29348908  0.63806693    -0.08800
C87         C  0.04022665  0.29888365  0.69111551     0.05800
C88         C  0.01552355  0.33718527  0.70089965    -0.08200
H89         H  0.01008058  0.38923103  0.57125018     0.11400
H90         H  0.07425945  0.26535792  0.63094475     0.09000
H91         H  0.00504298  0.34175498  0.74196623     0.08800
O92         O  0.84172470  0.50478995  0.54496193    -0.75800
C93         C  0.92788838  0.60360158  0.48911805     0.85300
O94         O  0.93300383  0.49637675  0.67589454    -0.76900
O95         O  0.93810465  0.69528632  0.65564906    -0.78400
O96         O  0.82180038  0.67911668  0.61598119    -0.78200
O97         O  0.80703557  0.54319058  0.60518124    -0.76800
Zn98       Zn  0.88637623  0.53578323  0.56642993     1.55700
O99         O  0.86789626  0.71455266  0.57970508    -0.78200
Cd100      Cd  0.83661468  0.60313132  0.64431220     1.59700
Cd101      Cd  0.90899876  0.56889525  0.69084149     1.59600
O102        O  0.82992177  0.59701743  0.73006967    -0.78200
O103        O  0.88410474  0.59183064  0.62401870    -1.88700
Cd104      Cd  0.90524960  0.66029571  0.59661174     1.59900
O105        O  0.87842725  0.56453557  0.75891128    -0.78100
O106        O  0.93008472  0.64459994  0.52253272    -0.76800
C107        C  0.93204194  0.46470236  0.63329383     0.85700
C108        C  0.81296821  0.50934601  0.56565499     0.85400
O109        O  0.91030735  0.56196396  0.49979021    -0.75800
C110        C  0.83693982  0.71656117  0.58988999     0.86200
O111        O  0.91418171  0.47437105  0.59113860    -0.75800
C112        C  0.84890026  0.57967107  0.76840474     0.86300
C113        C  0.95086837  0.67495483  0.69912953     0.86700
O114        O  0.94368667  0.62703203  0.71438417    -0.78300
C115        C  0.77033433  0.91075793  0.50132329     0.05800
C116        C  0.78837861  0.87078588  0.52909080    -0.10300
C117        C  0.80924279  0.83535058  0.49953557     0.03300
C118        C  0.81266149  0.84123873  0.44217652    -0.08800
C119        C  0.79463106  0.88050029  0.41358301     0.05800
C120        C  0.77311068  0.91462528  0.44317173    -0.08200
H121        H  0.78655179  0.86791300  0.57374886     0.11400
H122        H  0.82918373  0.81456268  0.41940604     0.09000
H123        H  0.76004972  0.94595468  0.42121950     0.08800
C124        C  0.02139557  0.86410045  0.83151853     0.05800
C125        C  0.00041454  0.85932681  0.87721186    -0.10300
C126        C  0.97339883  0.82323953  0.87566648     0.03300
C127        C  0.96779391  0.79015593  0.82877423    -0.08800
C128        C  0.98800248  0.79459303  0.78185703     0.05800
C129        C  0.01463281  0.83229513  0.78291670    -0.08200
H130        H  0.00498665  0.88412407  0.91435178     0.11400
H131        H  0.94669693  0.76242759  0.82794946     0.09000
H132        H  0.03032400  0.83538617  0.74694588     0.08800
O133        O  0.17487635  0.00133586  0.90802405    -0.75800
C134        C  0.10023403  0.12088444  0.97129199     0.85300
O135        O  0.09582653  0.00342633  0.76499226    -0.76900
O136        O  0.09313182  0.20136664  0.80644055    -0.78400
O137        O  0.20989631  0.17815307  0.85914978    -0.78200
O138        O  0.21418560  0.04041942  0.85683455    -0.76800
Zn139      Zn  0.13231486  0.04066407  0.88880919     1.55700
O140        O  0.16380657  0.22249733  0.88123808    -0.78200
Cd141      Cd  0.19128817  0.10604100  0.82177316     1.59700
Cd142      Cd  0.12119620  0.07646757  0.76386253     1.59600
O143        O  0.20205241  0.10581202  0.73681992    -0.78200
O144        O  0.14270297  0.09709651  0.83581356    -1.88700
Cd145      Cd  0.12559678  0.16853246  0.86321881     1.59900
O146        O  0.15405903  0.07732691  0.69936133    -0.78100
O147        O  0.10254582  0.16034425  0.93824829    -0.76800
C148        C  0.08804856  0.97431961  0.80588591     0.85700
C149        C  0.20465115  0.00440356  0.89067325     0.85400
O150        O  0.11119169  0.07356171  0.95879996    -0.75800
C151        C  0.19526920  0.21958944  0.87993940     0.86200
O152        O  0.09944671  0.98478104  0.85469466    -0.75800
C153        C  0.18414892  0.09221492  0.69469438     0.86300
C154        C  0.08031935  0.18086912  0.76202771     0.86700
O155        O  0.08738584  0.13365695  0.74359299    -0.78300
C156        C  0.26320228  0.41248233  0.98426902     0.05800
C157        C  0.25628100  0.41829570  0.04113223    -0.10300
C158        C  0.23054227  0.38810268  0.06465251     0.03300
C159        C  0.21284933  0.34987898  0.03141679    -0.08800
C160        C  0.22094793  0.34091188  0.97553236     0.05800
C161        C  0.24592100  0.37286196  0.95182745    -0.08200
H162        H  0.26984945  0.44814852  0.06645586     0.11400
H163        H  0.19326334  0.32578072  0.04960794     0.09000
H164        H  0.25164491  0.36735435  0.90826395     0.08800
C165        C  0.51157990  0.60468658  0.14498406     0.05800
C166        C  0.50210895  0.64320757  0.18573405    -0.10300
C167        C  0.47294146  0.67325188  0.17820952     0.03300
C168        C  0.45278831  0.66254836  0.13105457    -0.08800
C169        C  0.46164395  0.62273421  0.09166945     0.05800
C170        C  0.49092379  0.59418865  0.09891108    -0.08200
H171        H  0.51806261  0.65177409  0.22131221     0.11400
H172        H  0.42982249  0.68428139  0.12557007     0.09000
H173        H  0.49811570  0.56429197  0.06758193     0.08800
O174        O  0.66579262  0.49722675  0.06706567    -0.75800
C175        C  0.58082819  0.39248255  0.00595617     0.85300
O176        O  0.59244497  0.47962650  0.21696879    -0.76900
O177        O  0.58072076  0.29469043  0.16680962    -0.78400
O178        O  0.69115938  0.30076877  0.08809703    -0.78200
O179        O  0.70731250  0.43964993  0.08082923    -0.76800
Zn180      Zn  0.62470130  0.45606243  0.08781062     1.55700
O181        O  0.63899605  0.27207627  0.07369722    -0.78200
Cd182      Cd  0.68403853  0.37822823  0.12660736     1.59700
Cd183      Cd  0.62236128  0.41087524  0.20996155     1.59600
O184        O  0.70479187  0.38153339  0.20718745    -0.78200
O185        O  0.63527159  0.39412378  0.13176409    -1.88700
Cd186      Cd  0.60803493  0.33067761  0.10428696     1.59900
O187        O  0.66405861  0.41499784  0.25989249    -0.78100
O188        O  0.57904151  0.35112383  0.03688958    -0.76800
C189        C  0.58345488  0.51100855  0.17836996     0.85700
C190        C  0.69628327  0.48510740  0.06394167     0.85400
O191        O  0.59883316  0.43383232  0.01882575    -0.75800
C192        C  0.67005498  0.26525390  0.06965418     0.86200
O193        O  0.59485912  0.50572018  0.12954609    -0.75800
C194        C  0.69369422  0.39828494  0.25407492     0.86300
C195        C  0.58021107  0.30547061  0.21881080     0.86700
O196        O  0.59510838  0.34688097  0.24017434    -0.78300
C197        C  0.75258466  0.06544817  0.98626013     0.05800
C198        C  0.73712089  0.05761546  0.93399381    -0.10300
C199        C  0.71175807  0.09257278  0.91695392     0.03300
C200        C  0.70292896  0.13645745  0.95176943    -0.08800
C201        C  0.71917938  0.14650052  0.00299865     0.05800
C202        C  0.74386348  0.11051208  0.02004917    -0.08200
H203        H  0.74398781  0.02333044  0.90763705     0.11400
H204        H  0.68412132  0.16413634  0.93755471     0.09000
H205        H  0.75643964  0.11772505  0.05948494     0.08800
C206        C  0.49377150  0.11978206  0.31589604     0.05800
C207        C  0.50463139  0.15616350  0.27553603    -0.10300
C208        C  0.53527824  0.18345850  0.28254656     0.03300
C209        C  0.55543787  0.17180621  0.32877486    -0.08800
C210        C  0.54497337  0.13409188  0.36785882     0.05800
C211        C  0.51413179  0.10873285  0.36135621    -0.08200
H212        H  0.48889087  0.16463033  0.24019636     0.11400
H213        H  0.57970863  0.19066868  0.33349003     0.09000
H214        H  0.50585253  0.08006176  0.39205027     0.08800
O215        O  0.34559724  0.99381574  0.39918386    -0.75800
C216        C  0.42953892  0.89060768  0.45166028     0.85300
O217        O  0.42178929  0.97883521  0.24424751    -0.76900
O218        O  0.42908223  0.79138317  0.29067247    -0.78400
O219        O  0.31586069  0.80584386  0.35093112    -0.78200
O220        O  0.30392484  0.94319463  0.36406576    -0.76800
Zn221      Zn  0.38726864  0.95667847  0.37176044     1.55700
O222        O  0.36556682  0.77271822  0.37193086    -0.78200
Cd223      Cd  0.32776119  0.88206925  0.31945323     1.59700
Cd224      Cd  0.39301335  0.90854859  0.24607299     1.59600
O225        O  0.30980803  0.88559371  0.23854328    -0.78200
O226        O  0.37693279  0.89498853  0.32265403    -1.88700
Cd227      Cd  0.40021842  0.82946848  0.35053704     1.59900
O228        O  0.35385934  0.91225810  0.19053674    -0.78100
O229        O  0.42769588  0.84731318  0.42158007    -0.76800
C230        C  0.42780291  0.01412793  0.28263283     0.85700
C231        C  0.31467822  0.98412398  0.39261584     0.85400
O232        O  0.41480821  0.93404293  0.43812583    -0.75800
C233        C  0.33414215  0.76828463  0.36976214     0.86200
O234        O  0.41526536  0.01032550  0.33080276    -0.75800
C235        C  0.32322822  0.89935140  0.19323906     0.86300
C236        C  0.43324107  0.80190517  0.23966664     0.86700
O237        O  0.42126619  0.84419800  0.21783903    -0.78300
C238        C  0.28461796  0.55580871  0.44522469     0.05800
C239        C  0.29801591  0.60084396  0.41812557    -0.10300
C240        C  0.32265509  0.63325275  0.44409074     0.03300
C241        C  0.33494088  0.61895297  0.49608838    -0.08800
C242        C  0.32123439  0.57518505  0.52437000     0.05800
C243        C  0.29563349  0.54388163  0.49926992    -0.08200
H244        H  0.28946284  0.61030606  0.37673293     0.11400
H245        H  0.35459016  0.64325734  0.51560780     0.09000
H246        H  0.28550078  0.50914357  0.52053432     0.08800
C247        C  0.50132403  0.38157440  0.79992933     0.05800
C248        C  0.51434536  0.38255975  0.85439917    -0.10300
C249        C  0.53843147  0.34527399  0.87025980     0.03300
C250        C  0.54952330  0.30661055  0.83163377    -0.08800
C251        C  0.53795195  0.30615183  0.77646303     0.05800
C252        C  0.51420106  0.34451319  0.76053895    -0.08200
H253        H  0.50583638  0.41242797  0.88461434     0.11400
H254        H  0.56873335  0.27883776  0.84409265     0.09000
H255        H  0.50523924  0.34467517  0.71803235     0.08800
O256        O  0.40035257  0.58870658  0.94745155    -0.75800
C257        C  0.30784494  0.50965219  0.88605505     0.85300
O258        O  0.42483428  0.50415264  0.76922922    -0.76900
O259        O  0.31376424  0.58870553  0.72084047    -0.78400
O260        O  0.35024003  0.72268334  0.85399479    -0.78200
O261        O  0.41278866  0.67174184  0.91835808    -0.76800
Zn262      Zn  0.37942009  0.54943298  0.88133680     1.55700
O263        O  0.30403336  0.67545290  0.83369313    -0.78200
Cd264      Cd  0.38917520  0.67163945  0.84206595     1.59700
Cd265      Cd  0.39581537  0.57225542  0.75239527     1.59600
O266        O  0.42069069  0.70371659  0.78366118    -0.78200
O267        O  0.37187825  0.59779893  0.82043419    -1.88700
Cd268      Cd  0.32304685  0.60111934  0.80502631     1.59900
O269        O  0.42645254  0.63404986  0.72369345    -0.78100
O270        O  0.29851500  0.53972834  0.84659067    -0.76800
C271        C  0.42776338  0.47886171  0.81473605     0.85700
C272        C  0.41338303  0.63576448  0.95547544     0.85400
O273        O  0.33749332  0.51108939  0.90463940    -0.75800
C274        C  0.31879305  0.71847999  0.85215866     0.86200
O275        O  0.41152501  0.49241421  0.85774622    -0.75800
C276        C  0.43286991  0.68297232  0.73952746     0.86300
C277        C  0.33139008  0.56980519  0.68134469     0.86700
O278        O  0.36185051  0.55762257  0.68815151    -0.78300
C279        C  0.25455499  0.90222535  0.97351962     0.05800
C280        C  0.26850154  0.86490438  0.93539769    -0.10300
C281        C  0.29780789  0.83809256  0.94889379     0.03300
C282        C  0.31307260  0.84882592  0.00035985    -0.08800
C283        C  0.29875583  0.88382777  0.03961408     0.05800
C284        C  0.26903248  0.91000701  0.02644887    -0.08200
H285        H  0.25736675  0.85865106  0.89465252     0.11400
H286        H  0.33623223  0.82912176  0.01031123     0.09000
H287        H  0.25855905  0.93917245  0.05556581     0.08800
C288        C  0.51400809  0.88140671  0.65215956     0.05800
C289        C  0.49915505  0.88185226  0.59895593    -0.10300
C290        C  0.47415355  0.84416713  0.58385545     0.03300
C291        C  0.46421108  0.80530983  0.62193963    -0.08800
C292        C  0.47767110  0.80532006  0.67595087     0.08200
C293        C  0.50218633  0.84424392  0.69116104    -0.08200
H294        H  0.50689661  0.91170814  0.56920915     0.11400
H295        H  0.44447812  0.77694186  0.61026281     0.09000
H296        H  0.51254638  0.84478104  0.73279986     0.08800
O297        O  0.60948934  0.09325745  0.50362166    -0.75800
C298        C  0.70190635  0.01002769  0.54735852     0.85300
O299        O  0.59332340  0.00572627  0.68130499    -0.76900
O300        O  0.70662753  0.09021253  0.71853588    -0.78400
O301        O  0.66893182  0.22625218  0.59829305    -0.78200
O302        O  0.60436454  0.17825870  0.53561640    -0.76800
Zn303      Zn  0.63240556  0.05333197  0.56487215     1.55700
O304        O  0.71389968  0.17486693  0.60626570    -0.78200
Cd305      Cd  0.62930158  0.17569236  0.61020085     1.59700
Cd306      Cd  0.62266413  0.07632575  0.69686277     1.59600
O307        O  0.59829528  0.20700596  0.67009316    -0.78200
O308        O  0.64459457  0.10075709  0.62689672    -1.88700
Cd309      Cd  0.69415164  0.10120045  0.63544163     1.59900
O310        O  0.59139057  0.13707722  0.72653465    -0.78100
O311        O  0.71450910  0.03783230  0.58785997    -0.76800
C312        C  0.58734031  0.98134989  0.63474337     0.85700
C313        C  0.59955273  0.14187893  0.49809084     0.85400
O314        O  0.67167967  0.01458636  0.53315312    -0.75800
C315        C  0.69999181  0.21946688  0.59350969     0.86200
O316        O  0.60084361  0.99639335  0.59010868    -0.75800
C317        C  0.58522628  0.18573044  0.71245350     0.86300
C318        C  0.69014821  0.07679968  0.76122466     0.86700
O319        O  0.65885356  0.06763135  0.75909517    -0.78300
C320        C  0.76090437  0.40788447  0.47690041     0.05800
C321        C  0.74766964  0.41195982  0.42287098    -0.10300
C322        C  0.71982872  0.38043492  0.40665027     0.03300
C323        C  0.70639681  0.34350550  0.44397400    -0.08800
C324        C  0.72054750  0.33660034  0.49658254     0.05800
C325        C  0.74775750  0.36912384  0.51316829    -0.08200
H326        H  0.75752350  0.44212864  0.39516012     0.11400
H327        H  0.68452839  0.31987187  0.43192586     0.09000
H328        H  0.75799830  0.36555801  0.55461348     0.08800
C329        C  0.71952219  0.26352641  0.56770461    -0.13700
C330        C  0.70388555  0.29853727  0.53426753    -0.28900
H331        H  0.74639140  0.26306519  0.56998044     0.15300
H332        H  0.67717481  0.29486066  0.52896276     0.15900
C333        C  0.54119906  0.92083402  0.66713115    -0.13700
C334        C  0.56354365  0.93540069  0.62899414    -0.28900
H335        H  0.54231512  0.93870906  0.70873658     0.15300
H336        H  0.56275862  0.91504200  0.58849081     0.15900
C337        C  0.29933904  0.76349432  0.87681117    -0.13700
C338        C  0.31479696  0.80103222  0.90976123    -0.28900
H339        H  0.27247293  0.76158254  0.87455899     0.15300
H340        H  0.34159331  0.79981961  0.91425357     0.15900
C341        C  0.45343464  0.71692612  0.70323172    -0.13700
C342        C  0.46401686  0.76760190  0.71756263    -0.28900
H343        H  0.45830464  0.70076738  0.66181208     0.15300
H344        H  0.46120871  0.78271600  0.75994330     0.15900
C345        C  0.56358664  0.21881247  0.74844492    -0.13700
C346        C  0.55285064  0.26858509  0.73479119    -0.28900
H347        H  0.55778279  0.20274888  0.78887934     0.15300
H348        H  0.55654935  0.28322272  0.69307657     0.15900
C349        C  0.45122889  0.43381759  0.82101564    -0.13700
C350        C  0.47480828  0.42015052  0.78435557    -0.28900
H351        H  0.45048564  0.41331811  0.86048510     0.15300
H352        H  0.47513338  0.43809195  0.74358855     0.15900
C353        C  0.33494924  0.56334444  0.57971071    -0.13700
C354        C  0.31618532  0.56470484  0.62538513    -0.28900
H355        H  0.36176744  0.56371733  0.58409029     0.15300
H356        H  0.28955867  0.56956056  0.62127501     0.15900
C357        C  0.30285231  0.89822142  0.14193696    -0.13700
C358        C  0.31723148  0.89464226  0.09200522    -0.28900
H359        H  0.27609455  0.89487721  0.14521821     0.15300
H360        H  0.34410426  0.89348089  0.08983812     0.15900
C361        C  0.44896101  0.89089819  0.50393111    -0.13700
C362        C  0.45766509  0.84455239  0.52865996    -0.28900
H363        H  0.45433341  0.92994574  0.52431577     0.15300
H364        H  0.44976144  0.80563352  0.51036414     0.15900
C365        C  0.31870814  0.71795893  0.39032371    -0.13700
C366        C  0.33696582  0.68151948  0.41766994    -0.28900
H367        H  0.29214640  0.71191916  0.38533754     0.15300
H368        H  0.36309924  0.68983701  0.42562291     0.15900
C369        C  0.56593668  0.11931910  0.41545832    -0.13700
C370        C  0.58172371  0.15690963  0.44730739    -0.28900
H371        H  0.56568915  0.07700824  0.42780282     0.15300
H372        H  0.57952844  0.19983467  0.43804883     0.15900
C373        C  0.45211157  0.05814480  0.27255788    -0.13700
C374        C  0.46106794  0.09287842  0.31386720    -0.28900
H375        H  0.46635022  0.05658514  0.23452679     0.15300
H376        H  0.44776339  0.09205546  0.35284937     0.15900
C377        C  0.70822912  0.07369801  0.81497334    -0.13700
C378        C  0.69329301  0.08437766  0.86362735    -0.28900
H379        H  0.73494719  0.06904275  0.81415182     0.15300
H380        H  0.66712627  0.09433778  0.86335441     0.15900
C381        C  0.71515906  0.39605407  0.30426177    -0.13700
C382        C  0.70130232  0.38916040  0.35427418    -0.28900
H383        H  0.74189526  0.39524588  0.29988067     0.15300
H384        H  0.67450367  0.38500976  0.35651658     0.15900
C385        C  0.56214033  0.39266129  0.95317392    -0.13700
C386        C  0.55291518  0.34610081  0.92682371    -0.28900
H387        H  0.55853374  0.43140893  0.93320645     0.15300
H388        H  0.55944665  0.30732835  0.94460541     0.15900
C389        C  0.71124789  0.19557006  0.03785877    -0.13700
C390        C  0.68024409  0.21477983  0.04018471    -0.28900
H391        H  0.73086456  0.21548850  0.06215885     0.15300
H392        H  0.66049073  0.19182656  0.01915075     0.15900
C393        C  0.54665194  0.22324158  0.24116999    -0.13700
C394        C  0.56358835  0.26842727  0.25721963    -0.28900
H395        H  0.54133658  0.21510305  0.19749246     0.15300
H396        H  0.56685717  0.27764521  0.30125702     0.15900
C397        C  0.43007657  0.64919484  0.00874982    -0.13700
C398        C  0.44097534  0.61013328  0.04214057    -0.28900
H399        H  0.43574446  0.69167180  0.01877921     0.15300
H400        H  0.43792883  0.56759147  0.02950497     0.15900
C401        C  0.46310415  0.71565503  0.21942517    -0.13700
C402        C  0.45038221  0.76302503  0.20269842    -0.28900
H403        H  0.46525035  0.70710398  0.26331751     0.15300
H404        H  0.45017691  0.77189185  0.15871304     0.15900
C405        C  0.54398395  0.57754732  0.14494803    -0.13700
C406        C  0.55717864  0.55172221  0.18840423    -0.28900
H407        H  0.55484449  0.57155509  0.10418943     0.15300
H408        H  0.54571904  0.55472087  0.22892744     0.15900
C409        C  0.28837261  0.44863530  0.95948070    -0.13700
C410        C  0.28349472  0.47181666  0.91007016    -0.28900
H411        H  0.31016405  0.45965570  0.98422009     0.15300
H412        H  0.26041464  0.46437726  0.88748277     0.15900
C413        C  0.21520404  0.26487742  0.90527125    -0.13700
C414        C  0.20174409  0.29926219  0.94296735    -0.28900
H415        H  0.24153146  0.26722170  0.89665967     0.15300
H416        H  0.17602203  0.29328055  0.95454472     0.15900
C417        C  0.22710681  0.93749178  0.95616745    -0.13700
C418        C  0.22935011  0.96487886  0.90874586    -0.28900
H419        H  0.20693741  0.94540395  0.98465139     0.15300
H420        H  0.25136659  0.96050091  0.88345803     0.15900
C421        C  0.06411438  0.92888348  0.79582437    -0.13700
C422        C  0.04985362  0.90281092  0.83787567    -0.28900
H423        H  0.05589762  0.92051170  0.75345949     0.15300
H424        H  0.05734404  0.91423443  0.88002987     0.15900
C425        C  0.72226112  0.97157285  0.51476664    -0.13700
C426        C  0.75031653  0.94996209  0.53441019    -0.28900
H427        H  0.71281700  0.95859775  0.47420520     0.15300
H428        H  0.75809999  0.95944678  0.57684983     0.15900
C429        C  0.81771275  0.76301058  0.56916893    -0.13700
C430        C  0.82902856  0.79309884  0.52717639    -0.28900
H431        H  0.79297659  0.76958646  0.58513358     0.15300
H432        H  0.85266359  0.78289337  0.50860956     0.15900
C433        C  0.97234158  0.70771752  0.73725921    -0.13700
C434        C  0.97940074  0.76094369  0.73169976    -0.28900
H435        H  0.97861216  0.68892664  0.77637679     0.15300
H436        H  0.97455972  0.78105699  0.69285001     0.15900
C437        C  0.78594452  0.47321513  0.54474974    -0.13700
C438        C  0.78765963  0.44571428  0.49589717    -0.28900
H439        H  0.76400959  0.46903886  0.57017281     0.15300
H440        H  0.80822413  0.45301889  0.46817916     0.15900
C441        C  0.05282975  0.26579183  0.73659334    -0.13700
C442        C  0.05842480  0.21286300  0.72724516    -0.28900
H443        H  0.05982824  0.28566415  0.77574874     0.15300
H444        H  0.04993469  0.19379739  0.68840766     0.15900
C445        C  0.95378271  0.41739757  0.62968202    -0.13700
C446        C  0.97714075  0.40793116  0.66795320    -0.28900
H447        H  0.95269660  0.39270266  0.59169639     0.15300
H448        H  0.97757020  0.43072440  0.70712106     0.15900
C449        C  0.29020427  0.02148364  0.41750604    -0.13700
C450        C  0.29752685  0.05581589  0.46019997    -0.28900
H451        H  0.26493795  0.01927464  0.40158111     0.15300
H452        H  0.32186176  0.05504145  0.47974025     0.15900
C453        C  0.22888195  0.10437909  0.62480026    -0.13700
C454        C  0.19694128  0.09613373  0.63777134    -0.28900
H455        H  0.24802570  0.10350218  0.65669643     0.15300
H456        H  0.17864875  0.09317514  0.60441618     0.15900
C457        C  0.22209576  0.39601182  0.12406140    -0.13700
C458        C  0.19038704  0.40124251  0.13944297    -0.28900
H459        H  0.24184869  0.39718910  0.15496189     0.15300
H460        H  0.17135461  0.40362016  0.10739987     0.15900
C461        C  0.06173760  0.32417407  0.54183288    -0.13700
C462        C  0.07169192  0.36986687  0.51721660    -0.28900
H463        H  0.06995755  0.28483091  0.52607178     0.15300
H464        H  0.06582963  0.40918071  0.53606291     0.15900
C465        C  0.21713298  0.22549153  0.40456421    -0.13700
C466        C  0.20611993  0.19388611  0.44567473    -0.28900
H467        H  0.24277264  0.22327271  0.39157934     0.15300
H468        H  0.18103566  0.19957029  0.46057364     0.15900
C469        C  0.23223259  0.50343508  0.43836890    -0.13700
C470        C  0.26037816  0.52040226  0.41499092    -0.28900
H471        H  0.22654293  0.51662199  0.48052238     0.15300
H472        H  0.26464769  0.51146545  0.37128577     0.15900
C473        C  0.94657774  0.60221328  0.43693007    -0.13700
C474        C  0.95995509  0.64665223  0.41448179    -0.28900
H475        H  0.94825667  0.56324274  0.41486557     0.15300
H476        H  0.95605521  0.68655040  0.43354798     0.15900
C477        C  0.04053393  0.55930095  0.28367103    -0.13700
C478        C  0.06470440  0.55167557  0.32136274    -0.28900
H479        H  0.03949386  0.53492683  0.24552464     0.15300
H480        H  0.06611914  0.57852780  0.35781382     0.15900
C481        C  0.71898867  0.52618418  0.04094466    -0.13700
C482        C  0.74377961  0.51297170  0.00669466    -0.28900
H483        H  0.71345358  0.56885319  0.04879286     0.15300
H484        H  0.74704312  0.47060227  0.99412773     0.15900
C485        C  0.80588569  0.57794157  0.84181483    -0.13700
C486        C  0.83781531  0.57980083  0.82664237    -0.28900
H487        H  0.78650978  0.57123903  0.81077745     0.15300
H488        H  0.85694487  0.58199546  0.85868038     0.15900
C489        C  0.79954262  0.88693227  0.35303732    -0.13700
C490        C  0.83036070  0.89183667  0.33319171    -0.28900
H491        H  0.77820238  0.88848739  0.32540513     0.15300
H492        H  0.85090813  0.89429519  0.36268755     0.15900
C493        C  0.93639212  0.86591274  0.94306029    -0.13700
C494        C  0.95063964  0.82059442  0.92298501    -0.28900
H495        H  0.94052582  0.90433675  0.92251838     0.15300
H496        H  0.94504663  0.78119699  0.94048554     0.15900
C497        C  0.81720858  0.68105140  0.02065804    -0.13700
C498        C  0.80360110  0.71133742  0.06179010    -0.28900
H499        H  0.84185260  0.69195086  0.00652527     0.15300
H500        H  0.77818553  0.70405737  0.07421267     0.15900
C501        C  0.95868078  0.76069275  0.23215770    -0.13700
C502        C  0.96548575  0.70830472  0.22029027    -0.28900
H503        H  0.96676239  0.77833498  0.27185910     0.15300
H504        H  0.95928484  0.69037885  0.17986879     0.15900
C505        C  0.77802970  0.00453373  0.05501149    -0.13700
C506        C  0.77857561  0.02726822  0.00462043    -0.28900
H507        H  0.75727967  0.01237257  0.08233085     0.15300
H508        H  0.79765276  0.01580263  0.97523213     0.15900
C509        C  0.07114981  0.09276584  0.05615923    -0.13700
C510        C  0.08469110  0.13196944  0.02553437    -0.28900
H511        H  0.07070897  0.05100691  0.04021697     0.15300
H512        H  0.08254985  0.17429277  0.03902347     0.15900
C513        C  0.06131376  0.19450497  0.23890495    -0.13700
C514        C  0.06906018  0.24529841  0.22375547    -0.28900
H515        H  0.06392130  0.18287700  0.28192771     0.15300
H516        H  0.06422777  0.25716022  0.18128114     0.15900
C517        C  0.95387606  0.04614427  0.14199757    -0.13700
C518        C  0.97724227  0.05317560  0.18164301    -0.28900
H519        H  0.95612503  0.06811877  0.10352469     0.15300
H520        H  0.97489204  0.03345937  0.22132659     0.15900
loop_ 
_geom_bond_atom_site_label_1 
_geom_bond_atom_site_label_2 
_geom_bond_distance 
_geom_bond_site_symmetry_2 
_ccdc_geom_bond_type 
C1            C2   1.405       .  A
C1            C6   1.401       .  A
C1          C518   1.477   1_455  S
C2            C3   1.398       .  A
C2            H7   1.084       .  S
C3            C4   1.406       .  A
C3          C509   1.484       .  S
C4            C5   1.409       .  A
C4            H8   1.083       .  S
C5            C6   1.402       .  A
C5          C513   1.479       .  S
C6            H9   1.084       .  S
O10          C26   1.273   1_554  A
O10         Zn16   2.013       .  S
C11         C505   1.483   1_565  S
C11          O27   1.276       .  A
C11          O24   1.280       .  A
O12          C25   1.273   1_565  A
O12         Cd19   2.059       .  S
O13          C31   1.282       .  A
O13         Cd22   2.119       .  S
O14          C28   1.274       .  A
O14         Cd18   2.043       .  S
O15          C26   1.274   1_554  A
O15         Cd18   2.062       .  S
Zn16         O27   2.028       .  S
Zn16         O29   2.015       .  S
Zn16         O21   1.941       .  S
O17          C28   1.281       .  A
O17         Cd22   2.119       .  S
Cd18         O20   2.077       .  S
Cd18         O21   1.995       .  S
Cd19         O23   2.053       .  S
Cd19         O32   2.048       .  S
Cd19         O21   1.985       .  S
O20          C30   1.274       .  A
O21         Cd22   2.013       .  S
Cd22         O24   2.102       .  S
O23          C30   1.271       .  A
C25         C517   1.471       .  S
C25          O29   1.273   1_545  A
C26         C493   1.470       .  S
C28         C498   1.486       .  S
C30         C501   1.470       .  S
C31         C490   1.478       .  S
C31          O32   1.273       .  A
C33          C34   1.407       .  A
C33          C38   1.412   1_556  A
C33         C482   1.485   1_556  S
C34          C35   1.402       .  A
C34          H39   1.084       .  S
C35          C36   1.402       .  A
C35         C485   1.485       .  S
C36          C37   1.403       .  A
C36          H40   1.085       .  S
C37          C38   1.406   1_556  A
C37         C497   1.484   1_556  S
C38          H41   1.083       .  S
C42          C43   1.409       .  A
C42          C47   1.407       .  A
C42         C477   1.485       .  S
C43          C44   1.401   1_455  A
C43          H48   1.084       .  S
C44          C45   1.393       .  A
C44         C474   1.478       .  S
C45          C46   1.406       .  A
C45          H49   1.084       .  S
C46          C47   1.407   1_655  A
C46         C502   1.482       .  S
C47          H50   1.084       .  S
O51          C67   1.271       .  A
O51         Zn57   2.000       .  S
C52         C469   1.475       .  S
C52          O68   1.273       .  A
C52          O65   1.278       .  A
O53          C66   1.277       .  A
O53         Cd60   2.089       .  S
O54          C72   1.280       .  A
O54         Cd63   2.100       .  S
O55          C69   1.276       .  A
O55         Cd59   2.065       .  S
O56          C67   1.276       .  A
O56         Cd59   2.080       .  S
Zn57         O68   2.010       .  S
Zn57         O70   2.006       .  S
Zn57         O62   1.926       .  S
O58          C69   1.278       .  A
O58         Cd63   2.100       .  S
Cd59         O61   2.078       .  S
Cd59         O62   1.997       .  S
Cd60         O64   2.066       .  S
Cd60         O73   2.059       .  S
Cd60         O62   1.992       .  S
O61          C71   1.277       .  A
O62         Cd63   2.007       .  S
Cd63         O65   2.087       .  S
O64          C71   1.274       .  A
C66         C478   1.475       .  S
C66          O70   1.272       .  A
C67         C462   1.472       .  S
C69         C465   1.485       .  S
C71         C514   1.475       .  S
C72         C458   1.476       .  S
C72          O73   1.274       .  A
C74          C75   1.410       .  A
C74          C79   1.406       .  A
C74         C450   1.480       .  S
C75          C76   1.407       .  A
C75          H80   1.083       .  S
C76          C77   1.402       .  A
C76         C466   1.485       .  S
C77          C78   1.405       .  A
C77          H81   1.084       .  S
C78          C79   1.402       .  A
C78         C453   1.485       .  S
C79          H82   1.084       .  S
C83          C84   1.409       .  A
C83          C88   1.399       .  A
C83         C446   1.473   1_455  S
C84          C85   1.402       .  A
C84          H89   1.083       .  S
C85          C86   1.394       .  A
C85         C461   1.479       .  S
C86          C87   1.406       .  A
C86          H90   1.084       .  S
C87          C88   1.397       .  A
C87         C441   1.470       .  S
C88          H91   1.084       .  S
O92         C108   1.273       .  A
O92         Zn98   2.008       .  S
C93         C473   1.473       .  S
C93         O109   1.271       .  A
C93         O106   1.277       .  A
O94         C107   1.274       .  A
O94        Cd101   2.063       .  S
O95         C113   1.278       .  A
O95        Cd104   2.100       .  S
O96         C110   1.279       .  A
O96        Cd100   2.093       .  S
O97         C108   1.276       .  A
O97        Cd100   2.088       .  S
Zn98        O109   1.997       .  S
Zn98        O111   1.989       .  S
Zn98        O103   1.936       .  S
O99         C110   1.277       .  A
O99        Cd104   2.068       .  S
Cd100       O102   2.096       .  S
Cd100       O103   2.004       .  S
Cd101       O105   2.066       .  S
Cd101       O114   2.056       .  S
Cd101       O103   1.987       .  S
O102        C112   1.279       .  A
O103       Cd104   2.005       .  S
Cd104       O106   2.087       .  S
O105        C112   1.274       .  A
C107        C445   1.466       .  S
C107        O111   1.269       .  A
C108        C437   1.477       .  S
C110        C429   1.481       .  S
C112        C486   1.477       .  S
C113        C433   1.477       .  S
C113        O114   1.272       .  A
C115        C116   1.407       .  A
C115        C120   1.413       .  A
C115        C426   1.487       .  S
C116        C117   1.405       .  A
C116        H121   1.084       .  S
C117        C118   1.401       .  A
C117        C430   1.483       .  S
C118        C119   1.404       .  A
C118        H122   1.084       .  S
C119        C120   1.403       .  A
C119        C489   1.486       .  S
C120        H123   1.083       .  S
C124        C125   1.402       .  A
C124        C129   1.416       .  A
C124        C422   1.488       .  S
C125        C126   1.398   1_455  A
C125        H130   1.085       .  S
C126        C127   1.393       .  A
C126        C494   1.474       .  S
C127        C128   1.406       .  A
C127        H131   1.084       .  S
C128        C129   1.411   1_655  A
C128        C434   1.485       .  S
C129        H132   1.082       .  S
O133        C149   1.279       .  A
O133       Zn139   2.036       .  S
C134        C510   1.477   1_556  S
C134        O150   1.279       .  A
C134        O147   1.271       .  A
O135        C148   1.270   1_545  A
O135       Cd142   2.057       .  S
O136        C154   1.276       .  A
O136       Cd145   2.070       .  S
O137        C151   1.277       .  A
O137       Cd141   2.097       .  S
O138        C149   1.275       .  A
O138       Cd141   2.061       .  S
Zn139       O150   2.051       .  S
Zn139       O152   2.052   1_545  S
Zn139       O144   1.951       .  S
O140        C151   1.274       .  A
O140       Cd145   2.060       .  S
Cd141       O143   2.097       .  S
Cd141       O144   2.004       .  S
Cd142       O146   2.054       .  S
Cd142       O155   2.034       .  S
Cd142       O144   1.986       .  S
O143        C153   1.277       .  A
O144       Cd145   1.994       .  S
Cd145       O147   2.055       .  S
O146        C153   1.272       .  A
C148        C421   1.482       .  S
C148        O152   1.279       .  A
C149        C418   1.470   1_545  S
C151        C413   1.483       .  S
C153        C454   1.475       .  S
C154        C442   1.461       .  S
C154        O155   1.269       .  A
C156        C157   1.406   1_556  A
C156        C161   1.409       .  A
C156        C409   1.481       .  S
C157        C158   1.401       .  A
C157        H162   1.084       .  S
C158        C159   1.405       .  A
C158        C457   1.484       .  S
C159        C160   1.402   1_554  A
C159        H163   1.084       .  S
C160        C161   1.404       .  A
C160        C414   1.483       .  S
C161        H164   1.083       .  S
C165        C166   1.407       .  A
C165        C170   1.400       .  A
C165        C405   1.475       .  S
C166        C167   1.409       .  A
C166        H171   1.083       .  S
C167        C168   1.410       .  A
C167        C401   1.483       .  S
C168        C169   1.399       .  A
C168        H172   1.084       .  S
C169        C170   1.393       .  A
C169        C398   1.476       .  S
C170        H173   1.085       .  S
O174        C190   1.272       .  A
O174       Zn180   2.007       .  S
C175        C385   1.474   1_554  S
C175        O191   1.273       .  A
C175        O188   1.275       .  A
O176        C189   1.274       .  A
O176       Cd183   2.092       .  S
O177        C195   1.276       .  A
O177       Cd186   2.083       .  S
O178        C192   1.282       .  A
O178       Cd182   2.122       .  S
O179        C190   1.280       .  A
O179       Cd182   2.107       .  S
Zn180       O191   2.017       .  S
Zn180       O193   1.988       .  S
Zn180       O185   1.923       .  S
O181        C192   1.272       .  A
O181       Cd186   2.046       .  S
Cd182       O184   2.108       .  S
Cd182       O185   2.016       .  S
Cd183       O187   2.061       .  S
Cd183       O196   2.059       .  S
Cd183       O185   1.996       .  S
O184        C194   1.281       .  A
O185       Cd186   1.995       .  S
Cd186       O188   2.068       .  S
O187        C194   1.277       .  A
C189        C406   1.484       .  S
C189        O193   1.272       .  A
C190        C481   1.476       .  S
C192        C390   1.479       .  S
C194        C381   1.484       .  S
C195        C394   1.474       .  S
C195        O196   1.272       .  A
C197        C198   1.409       .  A
C197        C202   1.409   1_556  A
C197        C506   1.486   1_556  S
C198        C199   1.408       .  A
C198        H203   1.084       .  S
C199        C200   1.402       .  A
C199        C378   1.489       .  S
C200        C201   1.409   1_556  A
C200        H204   1.083       .  S
C201        C202   1.404       .  A
C201        C389   1.493       .  S
C202        H205   1.084       .  S
C206        C207   1.406       .  A
C206        C211   1.397       .  A
C206        C374   1.470       .  S
C207        C208   1.408       .  A
C207        H212   1.084       .  S
C208        C209   1.411       .  A
C208        C393   1.484       .  S
C209        C210   1.401       .  A
C209        H213   1.083       .  S
C210        C211   1.392       .  A
C210        C369   1.474       .  S
C211        H214   1.085       .  S
O215        C231   1.276       .  A
O215       Zn221   2.032       .  S
C216        C361   1.478       .  S
C216        O232   1.275       .  A
C216        O229   1.275       .  A
O217        C230   1.273   1_565  A
O217       Cd224   2.072       .  S
O218        C236   1.274       .  A
O218       Cd227   2.076       .  S
O219        C233   1.277       .  A
O219       Cd223   2.089       .  S
O220        C231   1.275       .  A
O220       Cd223   2.077       .  S
Zn221       O232   2.031       .  S
Zn221       O234   2.009   1_565  S
Zn221       O226   1.941       .  S
O222        C233   1.273       .  A
O222       Cd227   2.042       .  S
Cd223       O225   2.079       .  S
Cd223       O226   2.008       .  S
Cd224       O228   2.067       .  S
Cd224       O237   2.066       .  S
Cd224       O226   1.996       .  S
O225        C235   1.274       .  A
O226       Cd227   1.999       .  S
Cd227       O229   2.068       .  S
O228        C235   1.276       .  A
C230        C373   1.478       .  S
C230        O234   1.276       .  A
C231        C449   1.478   1_565  S
C233        C365   1.476       .  S
C235        C357   1.479       .  S
C236        C402   1.474       .  S
C236        O237   1.273       .  A
C238        C239   1.403       .  A
C238        C243   1.411       .  A
C238        C470   1.478       .  S
C239        C240   1.401       .  A
C239        H244   1.084       .  S
C240        C241   1.398       .  A
C240        C366   1.473       .  S
C241        C242   1.398       .  A
C241        H245   1.085       .  S
C242        C243   1.406       .  A
C242        C353   1.476       .  S
C243        H246   1.083       .  S
C247        C248   1.410       .  A
C247        C252   1.408       .  A
C247        C350   1.489       .  S
C248        C249   1.400       .  A
C248        H253   1.083       .  S
C249        C250   1.395       .  A
C249        C386   1.478       .  S
C250        C251   1.405       .  A
C250        H254   1.084       .  S
C251        C252   1.409       .  A
C251        C346   1.485       .  S
C252        H255   1.084       .  S
O256        C272   1.275       .  A
O256       Zn262   2.018       .  S
C257        C410   1.476       .  S
C257        O273   1.274       .  A
C257        O270   1.274       .  A
O258        C271   1.278       .  A
O258       Cd265   2.098       .  S
O259        C277   1.276       .  A
O259       Cd268   2.076       .  S
O260        C274   1.273       .  A
O260       Cd264   2.040       .  S
O261        C272   1.272       .  A
O261       Cd264   2.064       .  S
Zn262       O273   2.019       .  S
Zn262       O275   1.996       .  S
Zn262       O267   1.933       .  S
O263        C274   1.277       .  A
O263       Cd268   2.094       .  S
Cd264       O266   2.070       .  S
Cd264       O267   1.993       .  S
Cd265       O269   2.082       .  S
Cd265       O278   2.082       .  S
Cd265       O267   2.004       .  S
O266        C276   1.274       .  A
O267       Cd268   2.006       .  S
Cd268       O270   2.076       .  S
O269        C276   1.276       .  A
C271        C349   1.474       .  S
C271        O275   1.272       .  A
C272        C397   1.474   1_556  S
C274        C337   1.480       .  S
C276        C341   1.477       .  S
C277        C354   1.479       .  S
C277        O278   1.279       .  A
C279        C280   1.409       .  A
C279        C284   1.407   1_556  A
C279        C417   1.477       .  S
C280        C281   1.400       .  A
C280        H285   1.084       .  S
C281        C282   1.399   1_556  A
C281        C338   1.475       .  S
C282        C283   1.398       .  A
C282        H286   1.085       .  S
C283        C284   1.405       .  A
C283        C358   1.478       .  S
C284        H287   1.084       .  S
C288        C289   1.411       .  A
C288        C293   1.408       .  A
C288        C333   1.492       .  S
C289        C290   1.402       .  A
C289        H294   1.083       .  S
C290        C291   1.397       .  A
C290        C362   1.483       .  S
C291        C292   1.406       .  A
C291        H295   1.084       .  S
C292        C293   1.409       .  A
C292        C342   1.486       .  S
C293        H296   1.084       .  S
O297        C313   1.273       .  A
O297       Zn303   2.015       .  S
C298        C425   1.477   1_545  S
C298        O314   1.272       .  A
C298        O311   1.277       .  A
O299        C312   1.280   1_545  A
O299       Cd306   2.114       .  S
O300        C318   1.278       .  A
O300       Cd309   2.085       .  S
O301        C315   1.273       .  A
O301       Cd305   2.041       .  S
O302        C313   1.269       .  A
O302       Cd305   2.055       .  S
Zn303       O314   2.007       .  S
Zn303       O316   1.991   1_545  S
Zn303       O308   1.931       .  S
O304        C315   1.279       .  A
O304       Cd309   2.107       .  S
Cd305       O307   2.061       .  S
Cd305       O308   1.996       .  S
Cd306       O310   2.084       .  S
Cd306       O319   2.101       .  S
Cd306       O308   2.013       .  S
O307        C317   1.274       .  A
O308       Cd309   2.010       .  S
Cd309       O311   2.093       .  S
O310        C317   1.276       .  A
C312        C334   1.477       .  S
C312        O316   1.271       .  A
C313        C370   1.471       .  S
C315        C329   1.483       .  S
C317        C345   1.475       .  S
C318        C377   1.485       .  S
C318        O319   1.282       .  A
C320        C321   1.409       .  A
C320        C325   1.410       .  A
C320        C438   1.480       .  S
C321        C322   1.405       .  A
C321        H326   1.084       .  S
C322        C323   1.400       .  A
C322        C382   1.483       .  S
C323        C324   1.401       .  A
C323        H327   1.085       .  S
C324        C325   1.401       .  A
C324        C330   1.479       .  S
C325        H328   1.084       .  S
C329        C330   1.350       .  D
C329        H331   1.086       .  S
C330        H332   1.088       .  S
C333        C334   1.345       .  D
C333        H335   1.086       .  S
C334        H336   1.087       .  S
C337        C338   1.347       .  D
C337        H339   1.086       .  S
C338        H340   1.087       .  S
C341        C342   1.348       .  D
C341        H343   1.087       .  S
C342        H344   1.086       .  S
C345        C346   1.348       .  D
C345        H347   1.086       .  S
C346        H348   1.087       .  S
C349        C350   1.345       .  D
C349        H351   1.087       .  S
C350        H352   1.086       .  S
C353        C354   1.342       .  D
C353        H355   1.087       .  S
C354        H356   1.087       .  S
C357        C358   1.343       .  D
C357        H359   1.086       .  S
C358        H360   1.088       .  S
C361        C362   1.345       .  D
C361        H363   1.086       .  S
C362        H364   1.087       .  S
C365        C366   1.346       .  D
C365        H367   1.086       .  S
C366        H368   1.087       .  S
C369        C370   1.340       .  D
C369        H371   1.087       .  S
C370        H372   1.087       .  S
C373        C374   1.341       .  D
C373        H375   1.087       .  S
C374        H376   1.087       .  S
C377        C378   1.346       .  D
C377        H379   1.087       .  S
C378        H380   1.087       .  S
C381        C382   1.347       .  D
C381        H383   1.086       .  S
C382        H384   1.088       .  S
C385        C386   1.343       .  D
C385        H387   1.087       .  S
C386        H388   1.087       .  S
C389        C390   1.344       .  D
C389        H391   1.086       .  S
C390        H392   1.087       .  S
C393        C394   1.345       .  D
C393        H395   1.086       .  S
C394        H396   1.087       .  S
C397        C398   1.342       .  D
C397        H399   1.087       .  S
C398        H400   1.087       .  S
C401        C402   1.346       .  D
C401        H403   1.086       .  S
C402        H404   1.087       .  S
C405        C406   1.346       .  D
C405        H407   1.087       .  S
C406        H408   1.086       .  S
C409        C410   1.346       .  D
C409        H411   1.087       .  S
C410        H412   1.087       .  S
C413        C414   1.349       .  D
C413        H415   1.086       .  S
C414        H416   1.087       .  S
C417        C418   1.343       .  D
C417        H419   1.086       .  S
C418        H420   1.088       .  S
C421        C422   1.342       .  D
C421        H423   1.085       .  S
C422        H424   1.087       .  S
C425        C426   1.343       .  D
C425        H427   1.086       .  S
C426        H428   1.087       .  S
C429        C430   1.347       .  D
C429        H431   1.086       .  S
C430        H432   1.087       .  S
C433        C434   1.345       .  D
C433        H435   1.088       .  S
C434        H436   1.086       .  S
C437        C438   1.347       .  D
C437        H439   1.087       .  S
C438        H440   1.087       .  S
C441        C442   1.336       .  D
C441        H443   1.086       .  S
C442        H444   1.088       .  S
C445        C446   1.339       .  D
C445        H447   1.087       .  S
C446        H448   1.087       .  S
C449        C450   1.344       .  D
C449        H451   1.087       .  S
C450        H452   1.086       .  S
C453        C454   1.344       .  D
C453        H455   1.086       .  S
C454        H456   1.088       .  S
C457        C458   1.343       .  D
C457        H459   1.086       .  S
C458        H460   1.088       .  S
C461        C462   1.341       .  D
C461        H463   1.087       .  S
C462        H464   1.087       .  S
C465        C466   1.348       .  D
C465        H467   1.086       .  S
C466        H468   1.087       .  S
C469        C470   1.340       .  D
C469        H471   1.087       .  S
C470        H472   1.087       .  S
C473        C474   1.340       .  D
C473        H475   1.088       .  S
C474        H476   1.087       .  S
C477        C478   1.345       .  D
C477        H479   1.086       .  S
C478        H480   1.087       .  S
C481        C482   1.341       .  D
C481        H483   1.087       .  S
C482        H484   1.087   1_554  S
C485        C486   1.344       .  D
C485        H487   1.086       .  S
C486        H488   1.087       .  S
C489        C490   1.342       .  D
C489        H491   1.086       .  S
C490        H492   1.088       .  S
C493        C494   1.341       .  D
C493        H495   1.088       .  S
C494        H496   1.087       .  S
C497        C498   1.351       .  D
C497        H499   1.087       .  S
C498        H500   1.086       .  S
C501        C502   1.344       .  D
C501        H503   1.088       .  S
C502        H504   1.086       .  S
C505        C506   1.349       .  D
C505        H507   1.087       .  S
C506        H508   1.087   1_554  S
C509        C510   1.341       .  D
C509        H511   1.087       .  S
C510        H512   1.087       .  S
C513        C514   1.342       .  D
C513        H515   1.086       .  S
C514        H516   1.087       .  S
C517        C518   1.344       .  D
C517        H519   1.088       .  S
C518        H520   1.086       .  S
