geometry optimzed in LAMMPS
_audit_creation_date              2020-11-30 
_audit_creation_method            'lammps2cif' 
_symmetry_space_group_name_H-M    'P1' 
_symmetry_Int_Tables_number       1 
_symmetry_cell_setting            triclinic 
loop_ 
_symmetry_equiv_pos_as_xyz 
  x,y,z 
_cell_length_a                    45.01845287 
_cell_length_b                    44.91222935965831 
_cell_length_c                    42.579412103561175 
_cell_angle_alpha                 90.03037483126536 
_cell_angle_beta                  90.05848399768307 
_cell_angle_gamma                 120.72384888761151 
loop_ 
_atom_site_label 
_atom_site_type_symbol 
_atom_site_fract_x 
_atom_site_fract_y 
_atom_site_fract_z 
_atom_site_charge 
Zn1        Zn  0.33379675  0.16616025  0.04565519     1.49700
Zn2        Zn  0.37748712  0.20530499  0.98460435     1.49400
Zn3        Zn  0.32872451  0.12265153  0.98526287     1.49100
Zn4        Zn  0.29559777  0.17100489  0.98435038     1.49500
O5          O  0.33391420  0.16634062  0.99984059    -1.83400
O6          O  0.37256799  0.21151873  0.06245398    -0.74000
O7          O  0.40506813  0.18891574  0.96003301    -0.73800
O8          O  0.33278176  0.09507000  0.02074689    -0.73300
O9          O  0.40516557  0.23663787  0.02038409    -0.74000
O10         O  0.34004118  0.12766186  0.06265570    -0.73600
O11         O  0.36783177  0.13219457  0.95704298    -0.74200
O12         O  0.26415677  0.12999595  0.95723666    -0.73600
O13         O  0.36892541  0.23590672  0.95638174    -0.74300
O14         O  0.28430032  0.09395334  0.96096906    -0.73700
O15         O  0.31223463  0.21469786  0.95858416    -0.74200
O16         O  0.26593140  0.17016044  0.02021892    -0.74100
O17         O  0.28889204  0.15990095  0.06195954    -0.73900
C18         C  0.39916455  0.23650651  0.04961981     0.77900
C19         C  0.39665794  0.15881873  0.95014171     0.78400
C20         C  0.33851853  0.10122127  0.04999255     0.77300
C21         C  0.26209118  0.10126603  0.95100513     0.77700
C22         C  0.34230408  0.23740336  0.94920853     0.78800
C23         C  0.26505273  0.16320471  0.04929785     0.77900
Zn24       Zn  0.33364283  0.16310567  0.45459018     1.49700
Zn25       Zn  0.37923194  0.20445791  0.51393148     1.49400
Zn26       Zn  0.29771266  0.17162690  0.51550865     1.49100
Zn27       Zn  0.32866463  0.12171472  0.51606003     1.49500
O28         O  0.33496498  0.16530281  0.50022629    -1.83400
O29         O  0.37193789  0.20719570  0.43635428    -0.74000
O30         O  0.37184592  0.23662714  0.54140462    -0.73800
O31         O  0.26759482  0.16952258  0.47996995    -0.73300
O32         O  0.40669254  0.23393582  0.47689955    -0.74000
O33         O  0.28871603  0.15638182  0.43858691    -0.73600
O34         O  0.31526726  0.21612567  0.53982077    -0.74200
O35         O  0.28352813  0.09454913  0.54015794    -0.73600
O36         O  0.40619848  0.18793567  0.53920202    -0.74300
O37         O  0.26579445  0.13236966  0.54349028    -0.73700
O38         O  0.36764504  0.13189264  0.54512016    -0.74200
O39         O  0.33242831  0.09284718  0.48114831    -0.74100
O40         O  0.33916536  0.12412311  0.43847187    -0.73900
C41         C  0.39943264  0.23239016  0.44777547     0.77900
C42         C  0.34560067  0.23880862  0.54859855     0.78400
C43         C  0.26562364  0.16071408  0.45133013     0.77300
C44         C  0.26225499  0.10312351  0.55020598     0.77700
C45         C  0.39710039  0.15838058  0.55092364     0.78800
C46         C  0.33772247  0.09805298  0.45172391     0.77900
N47         N  0.40613336  0.44842755  0.74913069    -0.35900
N48         N  0.42819029  0.99832077  0.79983176    -0.56400
N49         N  0.45454438  0.05046754  0.75203221    -0.35800
N50         N  0.42876816  0.99971485  0.70248980    -0.56400
C51         C  0.38896424  0.42936193  0.77448495     0.27700
C52         C  0.38908320  0.42983708  0.72344145     0.27700
C53         C  0.45638676  0.06882542  0.77781079     0.27700
C54         C  0.45649774  0.06958569  0.72685348     0.27700
C55         C  0.42381284  0.47128984  0.81584989     0.36300
C56         C  0.44883021  0.02602787  0.81785155     0.36400
C57         C  0.42438982  0.47258654  0.68298065     0.36300
C58         C  0.44924709  0.02814695  0.68528369     0.36400
C59         C  0.36010530  0.39870796  0.76487909    -0.21100
C60         C  0.36017622  0.39901653  0.73252167    -0.21100
C61         C  0.45843397  0.09951988  0.76900224    -0.21100
C62         C  0.45850249  0.10000468  0.73665158    -0.21100
C63         C  0.43857087  0.48115555  0.84541970    -0.22200
C64         C  0.45343459  0.01535830  0.84704677    -0.22200
C65         C  0.43932387  0.48315344  0.65358618    -0.22200
C66         C  0.45391059  0.01864052  0.65554754    -0.22200
C67         C  0.40161213  0.43705514  0.80552475    -0.17500
C68         C  0.40185782  0.43812462  0.69251175    -0.17500
C69         C  0.46164666  0.06225905  0.69587644    -0.17500
C70         C  0.46128815  0.06049415  0.80848947    -0.17500
H71         H  0.34195801  0.37758449  0.77962500     0.15400
H72         H  0.34210056  0.37818597  0.71741720     0.15400
H73         H  0.46149111  0.12018997  0.78425926     0.15400
H74         H  0.46164100  0.12114076  0.72204937     0.15400
H75         H  0.43604905  0.46446783  0.86479430     0.13700
H76         H  0.46761977  0.03150644  0.86684649     0.13700
H77         H  0.43652514  0.46693033  0.63368453     0.13700
H78         H  0.46803786  0.03558104  0.63618617     0.13700
H79         H  0.43110924  0.46989467  0.74936529     0.26900
H80         H  0.45805943  0.02926363  0.75164833     0.26900
N81         N  0.09418964  0.04226603  0.75083884    -0.35900
N82         N  0.06946625  0.06897630  0.79925866    -0.56400
N83         N  0.04358537  0.09375669  0.75000746    -0.35800
N84         N  0.06927153  0.06797014  0.70160470    -0.56400
C85         C  0.11100401  0.04069046  0.77652996     0.27700
C86         C  0.11107670  0.04028572  0.72542185     0.27700
C87         C  0.04201455  0.11099631  0.77540422     0.27700
C88         C  0.04181054  0.11040475  0.72425962     0.27700
C89         C  0.07684792  0.04884739  0.81723485     0.36300
C90         C  0.04958140  0.07697254  0.81682778     0.36400
C91         C  0.07698163  0.04778820  0.68406571     0.36300
C92         C  0.04940130  0.07564549  0.68358968     0.36400
C93         C  0.13946419  0.03868608  0.76737528    -0.21100
C94         C  0.13952121  0.03844847  0.73500373    -0.21100
C95         C  0.04023556  0.13949992  0.76574271    -0.21100
C96         C  0.04006646  0.13910502  0.73336080    -0.21100
C97         C  0.06229487  0.04465086  0.84673859    -0.22200
C98         C  0.04496926  0.06257448  0.84649198    -0.22200
C99         C  0.06266048  0.04326235  0.65436063    -0.22200
C100        C  0.04513150  0.06100318  0.65405503    -0.22200
C101        C  0.09841378  0.03633036  0.80755805    -0.17500
C102        C  0.09861708  0.03549809  0.69429983    -0.17500
C103        C  0.03718503  0.09754074  0.69325103    -0.17500
C104        C  0.03750477  0.09879435  0.80661416    -0.17500
H105        H  0.15727619  0.03592777  0.78243995     0.15400
H106        H  0.15739814  0.03549182  0.72022618     0.15400
H107        H  0.03754751  0.15761717  0.78049394     0.15400
H108        H  0.03715584  0.15683265  0.71828164     0.15400
H109        H  0.06459972  0.03087020  0.86653041     0.13700
H110        H  0.03128470  0.06533433  0.86607752     0.13700
H111        H  0.06522904  0.02936090  0.63479903     0.13700
H112        H  0.03155531  0.06351226  0.63420485     0.13700
H113        H  0.06953453  0.03891460  0.75069602     0.26900
H114        H  0.04013305  0.06900252  0.75024881     0.26900
N115        N  0.44891335  0.40267747  0.74863303    -0.35900
N116        N  0.99784375  0.42735237  0.79682672    -0.56400
N117        N  0.04966720  0.45341543  0.74851026    -0.35800
N118        N  0.99874098  0.42709558  0.69947192    -0.56400
C119        C  0.42990498  0.38531553  0.77391877     0.27700
C120        C  0.43009630  0.38605881  0.72294997     0.27700
C121        C  0.06799136  0.45510377  0.77424058     0.27700
C122        C  0.06853625  0.45507967  0.72323576     0.27700
C123        C  0.47205356  0.41975008  0.81520445     0.36300
C124        C  0.02568834  0.44793111  0.81461669     0.36400
C125        C  0.47268166  0.42114793  0.68256072     0.36300
C126        C  0.02690676  0.44781272  0.68207299     0.36400
C127        C  0.39906935  0.35674223  0.76424698    -0.21100
C128        C  0.39920767  0.35721746  0.73191146    -0.21100
C129        C  0.09839900  0.45675219  0.76531463    -0.21100
C130        C  0.09875430  0.45676217  0.73293748    -0.21100
C131        C  0.48218052  0.43433381  0.84482106    -0.22200
C132        C  0.01549073  0.45257540  0.84402582    -0.22200
C133        C  0.48323364  0.43641077  0.65328436    -0.22200
C134        C  0.01705545  0.45283478  0.65264171    -0.22200
C135        C  0.43775856  0.39784821  0.80494076    -0.17500
C136        C  0.43835676  0.39935475  0.69224151    -0.17500
C137        C  0.06106779  0.46011238  0.69223580    -0.17500
C138        C  0.05987744  0.46013105  0.80497977    -0.17500
H139        H  0.37790304  0.33862010  0.77893042     0.15400
H140        H  0.37824021  0.33950156  0.71679201     0.15400
H141        H  0.11897432  0.45957553  0.78051343     0.15400
H142        H  0.11964699  0.45958505  0.71824837     0.15400
H143        H  0.46568310  0.43167129  0.86437702     0.13700
H144        H  0.03188379  0.46671656  0.86371934     0.13700
H145        H  0.46707879  0.43457830  0.63367910     0.13700
H146        H  0.03370581  0.46720236  0.63322079     0.13700
H147        H  0.47043833  0.42760995  0.74893966     0.26900
H148        H  0.02864069  0.45712006  0.74823266     0.26900
C149        C  0.48119503  0.12893805  0.63296055     0.03000
C150        C  0.01824601  0.14519456  0.63007307     0.03000
C151        C  0.03587798  0.13457070  0.65014602    -0.17500
C152        C  0.01775522  0.10661117  0.67065269     0.03000
C153        C  0.48152482  0.09169419  0.67423118     0.03000
C154        C  0.46355457  0.10161725  0.65416737    -0.17500
H155        H  0.43557972  0.08792474  0.65512767     0.05000
H156        H  0.06387119  0.14845344  0.65019264     0.05000
C157        C  0.12748699  0.48071097  0.62850814     0.03000
C158        C  0.14414676  0.01660720  0.62913500     0.03000
C159        C  0.13510838  0.03410502  0.65095489    -0.17500
C160        C  0.10789504  0.01592013  0.67209253     0.03000
C161        C  0.09030973  0.48026967  0.67036775     0.03000
C162        C  0.10017666  0.46258524  0.64969197    -0.17500
H163        H  0.08631016  0.43450872  0.64990399     0.05000
H164        H  0.14951281  0.06216620  0.65167413     0.05000
C165        C  0.35289025  0.36950478  0.86802235     0.03000
C166        C  0.36858562  0.34913308  0.86593988     0.03000
C167        C  0.39690678  0.35949476  0.84593951    -0.17500
C168        C  0.40860896  0.38857251  0.82672140     0.03000
C169        C  0.39166929  0.40776777  0.82741228     0.03000
C170        C  0.36418248  0.39823664  0.84817909    -0.17500
H171        H  0.35155543  0.41330867  0.84896610     0.05000
H172        H  0.41009976  0.34496196  0.84543308     0.05000
C173        C  0.37153647  0.35284640  0.62896684     0.03000
C174        C  0.35439023  0.37187350  0.62839491     0.03000
C175        C  0.36460204  0.39956064  0.64937678    -0.17500
C176        C  0.39225204  0.40927423  0.67003108     0.03000
C177        C  0.40981488  0.39069053  0.66997217     0.03000
C178        C  0.39947901  0.36286301  0.64937717    -0.17500
H179        H  0.41285228  0.34849201  0.64965459     0.05000
H180        H  0.35064613  0.41332614  0.64998987     0.05000
C181        C  0.12390086  0.47747707  0.86983935     0.03000
C182        C  0.14587455  0.01693272  0.87051861     0.03000
C183        C  0.13481087  0.03467467  0.85103560    -0.17500
C184        C  0.10731795  0.01668894  0.83003350     0.03000
C185        C  0.08841259  0.47931766  0.82759609     0.03000
C186        C  0.09683257  0.46054799  0.84825575    -0.17500
H187        H  0.08257953  0.43250741  0.84704094     0.05000
H188        H  0.14792032  0.06267460  0.85187990     0.05000
C189        C  0.48086266  0.12561268  0.87313154     0.03000
C190        C  0.01816339  0.14349938  0.87241075     0.03000
C191        C  0.03591856  0.13431218  0.85106023    -0.17500
C192        C  0.01797094  0.10810330  0.82880337     0.03000
C193        C  0.48106030  0.08916163  0.83100795     0.03000
C194        C  0.46308988  0.09868786  0.85149337    -0.17500
H195        H  0.43509226  0.08500912  0.85064745     0.05000
H196        H  0.06390985  0.14776526  0.85167522     0.05000
Zn197      Zn  0.20498501  0.37569635  0.51477888     1.49700
Zn198      Zn  0.17005068  0.29356640  0.51572113     1.49400
Zn199      Zn  0.12222566  0.32763081  0.51358809     1.49100
Zn200      Zn  0.16600440  0.33108902  0.45373851     1.49500
O201        O  0.16575135  0.33206325  0.49957015    -1.83400
O202        O  0.23479451  0.36633209  0.54328992    -0.74000
O203        O  0.13070824  0.26444007  0.54440931    -0.73800
O204        O  0.13208135  0.36842944  0.54050446    -0.73300
O205        O  0.21446107  0.30982616  0.54008294    -0.74000
O206        O  0.18907597  0.40413772  0.53914741    -0.73600
O207        O  0.09416444  0.28383116  0.53964662    -0.74200
O208        O  0.12753146  0.33666791  0.43543416    -0.73600
O209        O  0.16599035  0.26117943  0.48086403    -0.74300
O210        O  0.09448206  0.32971108  0.47679288    -0.73700
O211        O  0.15989143  0.28594852  0.43807858    -0.74200
O212        O  0.21158070  0.36949930  0.43738120    -0.74100
O213        O  0.23707936  0.40299040  0.47901776    -0.73900
C214        C  0.23679988  0.33980763  0.55008077     0.77900
C215        C  0.10204573  0.26228125  0.55052969     0.78400
C216        C  0.15904487  0.39680359  0.54810106     0.77300
C217        C  0.10072763  0.33479588  0.44745892     0.77700
C218        C  0.16114451  0.26125780  0.45141149     0.78800
C219        C  0.23675869  0.39629271  0.44989299     0.77900
Zn220      Zn  0.20502875  0.37688575  0.98364206     1.49700
Zn221      Zn  0.12318932  0.32613369  0.98666172     1.49400
Zn222      Zn  0.17332201  0.29514292  0.98568221     1.49100
Zn223      Zn  0.16965199  0.33478358  0.04591716     1.49500
O224        O  0.16779031  0.33320135  0.00029239    -1.83400
O225        O  0.18628776  0.40256097  0.95938704    -0.74000
O226        O  0.09558248  0.28121380  0.96272280    -0.73800
O227        O  0.21726947  0.31249150  0.96019811    -0.73300
O228        O  0.13004977  0.36426203  0.95777909    -0.74000
O229        O  0.23532440  0.36840955  0.95472122    -0.73600
O230        O  0.13356118  0.26369391  0.95806482    -0.74200
O231        O  0.16296723  0.29003411  0.06329819    -0.73600
O232        O  0.09647185  0.32986190  0.02301848    -0.74300
O233        O  0.17061551  0.26461452  0.02178768    -0.73700
O234        O  0.13249154  0.34256787  0.06340972    -0.74200
O235        O  0.21573823  0.37382962  0.06065492    -0.74100
O236        O  0.23712359  0.40672798  0.01823327    -0.73900
C237        C  0.15590060  0.39334747  0.94999447     0.77900
C238        C  0.10432373  0.26030774  0.95198713     0.78400
C239        C  0.23818042  0.34220499  0.94867903     0.77300
C240        C  0.16486487  0.26520885  0.05101093     0.77700
C241        C  0.10476646  0.33873551  0.05155709     0.78800
C242        C  0.23936230  0.40094477  0.04713903     0.77900
N243        N  0.05418654  0.09462547  0.25149035    -0.35900
N244        N  0.50105885  0.06992638  0.29994833    -0.56400
N245        N  0.44996876  0.04606925  0.25131491    -0.35800
N246        N  0.50175491  0.07280161  0.20252771    -0.56400
C247        C  0.07313716  0.11067115  0.27731020     0.27700
C248        C  0.07319286  0.11242111  0.22628202     0.27700
C249        C  0.43108643  0.04333109  0.27698124     0.27700
C250        C  0.43149396  0.04500676  0.22589248     0.27700
C251        C  0.03047014  0.07523776  0.31787119     0.36300
C252        C  0.47298542  0.04935633  0.31745672     0.36400
C253        C  0.03029956  0.08013736  0.18490396     0.36300
C254        C  0.47360776  0.05312365  0.18471748     0.36400
C255        C  0.10413208  0.13953250  0.26850187    -0.21100
C256        C  0.10417985  0.14061214  0.23615538    -0.21100
C257        C  0.40066499  0.04155099  0.26785015    -0.21100
C258        C  0.40091375  0.04259482  0.23545431    -0.21100
C259        C  0.02021336  0.06017812  0.34727619    -0.22200
C260        C  0.48286879  0.04359331  0.34658728    -0.22200
C261        C  0.01954404  0.06645815  0.15507705    -0.22200
C262        C  0.48337836  0.04865952  0.15503032    -0.22200
C263        C  0.06478186  0.09720464  0.30804175    -0.17500
C264        C  0.06485871  0.10106387  0.19490232    -0.17500
C265        C  0.43948159  0.04088105  0.19475817    -0.17500
C266        C  0.43886039  0.03766481  0.30773073    -0.17500
H267        H  0.12517294  0.15696886  0.28373759     0.15400
H268        H  0.12523626  0.15903741  0.22152645     0.15400
H269        H  0.37971649  0.03797931  0.28287855     0.15400
H270        H  0.38016010  0.03992021  0.22059853     0.15400
H271        H  0.03657355  0.06215822  0.36675711     0.13700
H272        H  0.46631067  0.02911689  0.36601143     0.13700
H273        H  0.03559415  0.06913126  0.13514149     0.13700
H274        H  0.46672436  0.03505168  0.13531505     0.13700
H275        H  0.03229922  0.06993747  0.25095165     0.26900
H276        H  0.47112282  0.04259535  0.25094456     0.26900
N277        N  0.45483543  0.40392946  0.24554730    -0.35900
N278        N  0.43224426  0.43294312  0.19740214    -0.56400
N279        N  0.40583790  0.45722583  0.24675244    -0.35800
N280        N  0.42713067  0.42686733  0.29495013    -0.56400
C281        C  0.45786914  0.38862132  0.21937439     0.27700
C282        C  0.45546216  0.38557277  0.27044167     0.27700
C283        C  0.39021877  0.46059560  0.22097633     0.27700
C284        C  0.38818320  0.45813747  0.27206925     0.27700
C285        C  0.45242009  0.42556671  0.17956934     0.36300
C286        C  0.42542168  0.45393336  0.18015946     0.36400
C287        C  0.44613486  0.41773433  0.31265034     0.36300
C288        C  0.41955222  0.44665098  0.31332396     0.36400
C289        C  0.45941165  0.35959619  0.22764627    -0.21100
C290        C  0.45793343  0.35769652  0.25998135    -0.21100
C291        C  0.36178010  0.46272716  0.22995983    -0.21100
C292        C  0.36049251  0.46116615  0.26229798    -0.21100
C293        C  0.45786239  0.44129770  0.15045577    -0.22200
C294        C  0.44062206  0.45929438  0.15080813    -0.22200
C295        C  0.44980399  0.43091612  0.34275447    -0.22200
C296        C  0.43299217  0.44934800  0.34316303    -0.22200
C297        C  0.46385703  0.40296373  0.18889282    -0.17500
C298        C  0.45870852  0.39637173  0.30205840    -0.17500
C299        C  0.39920600  0.46067079  0.30353450    -0.17500
C300        C  0.40368524  0.46612519  0.19017825    -0.17500
H301        H  0.46302792  0.34263705  0.21209398     0.15400
H302        H  0.46020162  0.33900781  0.27423538     0.15400
H303        H  0.34484904  0.46684434  0.21490148     0.15400
H304        H  0.34230640  0.46368612  0.27701490     0.15400
H305        H  0.47199105  0.43931761  0.13081924     0.13700
H306        H  0.43880033  0.47389774  0.13147296     0.13700
H307        H  0.46282198  0.42729332  0.36243631     0.13700
H308        H  0.43060455  0.46278773  0.36318808     0.13700
H309        H  0.45817345  0.42862295  0.24663494     0.26900
H310        H  0.43023223  0.45992927  0.24729635     0.26900
C311        C  0.35536301  0.47930397  0.37093693     0.03000
C312        C  0.37439974  0.01622454  0.37356640     0.03000
C313        C  0.40086697  0.03465031  0.35165117    -0.17500
C314        C  0.41008493  0.01723809  0.32996931     0.03000
C315        C  0.39007869  0.47996727  0.32646491     0.03000
C316        C  0.36406129  0.46171829  0.34877557    -0.17500
H317        H  0.35041124  0.43365021  0.34885994     0.05000
H318        H  0.41438197  0.06271458  0.35147635     0.05000
N319        N  0.04558297  0.44846273  0.24889675    -0.35900
N320        N  0.07151027  0.00171633  0.20102180    -0.56400
N321        N  0.09960330  0.05171381  0.25096879    -0.35800
N322        N  0.07237438  0.99875756  0.29840003    -0.56400
C323        C  0.04423039  0.43091866  0.22267968     0.27700
C324        C  0.04330142  0.42862532  0.27363026     0.27700
C325        C  0.11661910  0.07124038  0.22576378     0.27700
C326        C  0.11686097  0.06969396  0.27681230     0.27700
C327        C  0.05094698  0.47437631  0.18349009     0.36300
C328        C  0.08031198  0.03045741  0.18420844     0.36400
C329        C  0.05022092  0.46899603  0.31605346     0.36300
C330        C  0.08112299  0.02645842  0.31687496     0.36400
C331        C  0.04211329  0.39999959  0.23079851    -0.21100
C332        C  0.04148313  0.39853256  0.26312919    -0.21100
C333        C  0.14570523  0.10156542  0.23560460    -0.21100
C334        C  0.14584362  0.10058578  0.26797316    -0.21100
C335        C  0.04614147  0.48521159  0.15444061    -0.22200
C336        C  0.06529479  0.02158119  0.15465743    -0.22200
C337        C  0.04527228  0.47777882  0.34599427    -0.22200
C338        C  0.06615867  0.01572738  0.34624086    -0.22200
C339        C  0.03954723  0.43996153  0.19218676    -0.17500
C340        C  0.03789999  0.43513825  0.30481637    -0.17500
C341        C  0.10386314  0.06101064  0.30765469    -0.17500
C342        C  0.10344580  0.06430270  0.19486668    -0.17500
H343        H  0.03929320  0.37976207  0.21508414     0.15400
H344        H  0.03816175  0.37700498  0.27724241     0.15400
H345        H  0.16374231  0.12299310  0.22108488     0.15400
H346        H  0.16403434  0.12107671  0.28325993     0.15400
H347        H  0.03261146  0.46924854  0.13434455     0.13700
H348        H  0.06843751  0.03887090  0.13559798     0.13700
H349        H  0.03095815  0.46038827  0.36504078     0.13700
H350        H  0.06920105  0.03181722  0.36632459     0.13700
H351        H  0.04192189  0.46954146  0.24978675     0.26900
H352        H  0.07449370  0.03053587  0.25074816     0.26900
C353        C  0.35793875  0.48592243  0.12603813     0.03000
C354        C  0.37445077  0.01996252  0.12955270     0.03000
C355        C  0.40110155  0.03824567  0.15137762    -0.17500
C356        C  0.41069436  0.02071539  0.17249894     0.03000
C357        C  0.39498739  0.48600927  0.16786411     0.03000
C358        C  0.36796463  0.46806859  0.14638431    -0.17500
H359        H  0.35398647  0.43999186  0.14616381     0.05000
H360        H  0.41427573  0.06627764  0.15216659     0.05000
C361        C  0.14917945  0.12759926  0.37190042     0.03000
C362        C  0.12905602  0.14350839  0.37334424     0.03000
C363        C  0.10162941  0.13316814  0.35224201    -0.17500
C364        C  0.09329927  0.10656858  0.33061020     0.03000
C365        C  0.11242063  0.08954536  0.33019681     0.03000
C366        C  0.14016697  0.10017863  0.35091112    -0.17500
H367        H  0.15526846  0.08758737  0.35024590     0.05000
H368        H  0.08711490  0.14637866  0.35214845     0.05000
C369        C  0.15058249  0.13158592  0.13194152     0.03000
C370        C  0.13058373  0.14766347  0.13021957     0.03000
C371        C  0.10251810  0.13722086  0.15068768    -0.17500
C372        C  0.09370285  0.11058701  0.17244405     0.03000
C373        C  0.11303246  0.09376307  0.17333177     0.03000
C374        C  0.14094485  0.10413005  0.15291280    -0.17500
H375        H  0.15517759  0.09063686  0.15332906     0.05000
H376        H  0.08774083  0.15014623  0.14991281     0.05000
C377        C  0.47784023  0.34988212  0.36651233     0.03000
C378        C  0.01666427  0.36806635  0.36815171     0.03000
C379        C  0.03482733  0.39519875  0.34676203    -0.17500
C380        C  0.01744143  0.40520338  0.32588964     0.03000
C381        C  0.47816256  0.38679287  0.32425669     0.03000
C382        C  0.46011398  0.35858576  0.34460093    -0.17500
H383        H  0.43213015  0.34360115  0.34367186     0.05000
H384        H  0.06282821  0.40885436  0.34644083     0.05000
C385        C  0.48462861  0.35858257  0.12401568     0.03000
C386        C  0.02177660  0.37596155  0.12689977     0.03000
C387        C  0.03884154  0.40218286  0.14936969    -0.17500
C388        C  0.02039966  0.41191621  0.16908018     0.03000
C389        C  0.48395703  0.39467676  0.16648185     0.03000
C390        C  0.46643130  0.36822366  0.14434810    -0.17500
H391        H  0.43844124  0.35452494  0.14342696     0.05000
H392        H  0.06671479  0.41514475  0.15155795     0.05000
C393        C  0.13243779  0.20227311  0.06093706    -0.05000
C394        C  0.15826561  0.23538979  0.07074832     0.00900
C395        C  0.17598270  0.23923392  0.09931649    -0.07700
C396        C  0.16616948  0.20969511  0.11775149    -0.05000
C397        C  0.13969057  0.17673497  0.10840744     0.00900
C398        C  0.12250482  0.17271190  0.07937982    -0.07600
C399        C  0.09358072  0.13842485  0.06660482     0.62800
H400        H  0.11912940  0.19956603  0.03891526     0.13500
H401        H  0.17864066  0.21226646  0.14011603     0.13500
C402        C  0.20552490  0.27415829  0.11003685     0.63000
F403        F  0.10330448  0.13209233  0.03771140    -0.22100
F404        F  0.06420597  0.14052091  0.06259849    -0.19500
F405        F  0.08529437  0.11050123  0.08586223    -0.19100
F406        F  0.19300373  0.29546370  0.11835394    -0.19200
F407        F  0.22930315  0.28943936  0.08603104    -0.19500
F408        F  0.22257605  0.27106142  0.13578259    -0.22200
C409        C  0.08783852  0.38040416  0.06805981    -0.05000
C410        C  0.08281550  0.34707433  0.07077951     0.00900
C411        C  0.05798711  0.32319872  0.09191649    -0.07700
C412        C  0.03881160  0.33373541  0.11000929    -0.05000
C413        C  0.04269987  0.36671416  0.10646888     0.00900
C414        C  0.06792798  0.39069428  0.08521545    -0.07600
C415        C  0.55379058  0.41234673  0.06330312     0.62800
H416        H  0.10765255  0.39863346  0.05221720     0.13500
H417        H  0.02109239  0.31643501  0.12754964     0.13500
C418        C  0.05190206  0.28685473  0.09504773     0.63000
F419        F  0.53509919  0.40184730  0.03562979    -0.22100
F420        F  0.58674909  0.43943019  0.05678184    -0.19500
F421        F  0.53851264  0.42485997  0.08320680    -0.19100
F422        F  0.08203927  0.28839241  0.10456878    -0.19200
F423        F  0.04180723  0.27016160  0.06632873    -0.19500
F424        F  0.02636078  0.26740193  0.11676238    -0.22200
C425        C  0.26519533  0.43093582  0.09723879    -0.05000
C426        C  0.27022974  0.42560193  0.06565750     0.00900
C427        C  0.30443031  0.44094726  0.05372275    -0.07700
C428        C  0.33229320  0.46033894  0.07431042    -0.05000
C429        C  0.32713919  0.46565158  0.10575638     0.00900
C430        C  0.29311058  0.45065330  0.11761603    -0.07600
C431        C  0.28625510  0.45415833  0.15193859     0.62800
H432        H  0.23900499  0.41873212  0.10607708     0.13500
H433        H  0.35849559  0.47074890  0.06625800     0.13500
C434        C  0.31173503  0.43576043  0.01992016     0.63000
F435        F  0.25140192  0.44036640  0.15782224    -0.22100
F436        F  0.30328116  0.48861135  0.16060208    -0.19500
F437        F  0.29773415  0.43678065  0.17042597    -0.19100
F438        F  0.29926798  0.45095731  0.99970230    -0.19200
F439        F  0.29603438  0.40074772  0.01339093    -0.19500
F440        F  0.34675170  0.45056924  0.01420226    -0.22200
C441        C  0.16734730  0.20488174  0.38833879    -0.05000
C442        C  0.13783929  0.17276010  0.39497937     0.00900
C443        C  0.11712466  0.16934509  0.42132726    -0.07700
C444        C  0.12653006  0.19878244  0.43987379    -0.05000
C445        C  0.15520212  0.23119098  0.43245425     0.00900
C446        C  0.17643488  0.23436612  0.40669252    -0.07600
C447        C  0.20869153  0.26860790  0.39891396     0.62800
H448        H  0.18275877  0.20685947  0.36809249     0.13500
H449        H  0.11057225  0.19707467  0.45954074     0.13500
C450        C  0.08469511  0.13521241  0.42936703     0.63000
F451        F  0.22781875  0.26503219  0.37535026    -0.22100
F452        F  0.22945061  0.28147660  0.42529223    -0.19500
F453        F  0.19962817  0.29218873  0.38892864    -0.19100
F454        F  0.07145135  0.13658604  0.45831709    -0.19200
F455        F  0.09178999  0.10872885  0.43037766    -0.19500
F456        F  0.05955419  0.12747274  0.40694970    -0.22200
C457        C  0.04068707  0.33062238  0.38192509    -0.05000
C458        C  0.03687300  0.35887889  0.38981253     0.00900
C459        C  0.05440858  0.37918892  0.41657315    -0.07700
C460        C  0.07370549  0.36932945  0.43537063    -0.05000
C461        C  0.07759877  0.34121368  0.42741520     0.00900
C462        C  0.06088433  0.32141636  0.40027022    -0.07600
C463        C  0.06407522  0.29055222  0.39095486     0.62800
H464        H  0.02850346  0.31639406  0.36064580     0.13500
H465        H  0.08717197  0.38442498  0.45595407     0.13500
C466        C  0.05367458  0.41168875  0.42490183     0.63000
F467        F  0.04303129  0.27280806  0.36566982    -0.22100
F468        F  0.05461200  0.26777502  0.41590851    -0.19500
F469        F  0.09781654  0.30159012  0.38262117    -0.19100
F470        F  0.02004306  0.40368775  0.42893994    -0.19200
F471        F  0.06873145  0.43589597  0.40121196    -0.19500
F472        F  0.07150285  0.42675992  0.45241572    -0.22200
C473        C  0.29909046  0.42321284  0.43873278    -0.05000
C474        C  0.26708756  0.41919329  0.43037513     0.00900
C475        C  0.26442913  0.43545340  0.40299330    -0.07700
C476        C  0.29387967  0.45426154  0.38413760    -0.05000
C477        C  0.32602149  0.45856680  0.39249482     0.00900
C478        C  0.32869713  0.44226569  0.42004882    -0.07600
C479        C  0.36136036  0.44321616  0.43080896     0.62800
H480        H  0.30075289  0.41041673  0.45969989     0.13500
H481        H  0.29193682  0.46556516  0.36236330     0.13500
C482        C  0.23099221  0.43401855  0.39441223     0.63000
F483        F  0.37077309  0.45871833  0.46007847    -0.22100
F484        F  0.38894866  0.46097975  0.41068411    -0.19500
F485        F  0.35487979  0.40969938  0.43325442    -0.19100
F486        F  0.21983548  0.44516130  0.41964705    -0.19200
F487        F  0.20589979  0.40051126  0.38672715    -0.19500
F488        F  0.23361472  0.94406540  0.36038262    -0.22200
C489        C  0.04795836  0.20610463  0.88412945    -0.05000
C490        C  0.03874320  0.17273005  0.89421021     0.00900
C491        C  0.05134456  0.16834558  0.92328715    -0.07700
C492        C  0.07169072  0.19767185  0.94198285    -0.05000
C493        C  0.08019306  0.23088980  0.93221638     0.00900
C494        C  0.06859394  0.23548450  0.90273560    -0.07600
C495        C  0.07926837  0.27131467  0.89047451     0.62800
H496        H  0.03928265  0.20896778  0.86120450     0.13500
H497        H  0.08165635  0.19502775  0.96432539     0.13500
C498        C  0.04400702  0.13311693  0.93428696     0.63000
F499        F  0.06783800  0.27017060  0.86005410    -0.22100
F500        F  0.11492549  0.29190998  0.89057994    -0.19500
F501        F  0.06545584  0.28627793  0.90933576    -0.19100
F502        F  0.05931111  0.13491956  0.96301042    -0.19200
F503        F  0.05652444  0.11926276  0.91267669    -0.19500
F504        F  0.00892036  0.11128094  0.93757833    -0.22200
C505        C  0.11897545  0.41700574  0.93497444    -0.05000
C506        C  0.14967612  0.41666828  0.92997587     0.00900
C507        C  0.17195450  0.43652485  0.90509289    -0.07700
C508        C  0.16257587  0.45609653  0.88617184    -0.05000
C509        C  0.13184977  0.45622070  0.89110803     0.00900
C510        C  0.10949824  0.43634947  0.91589453    -0.07600
C511        C  0.07537219  0.43469890  0.92189749     0.62800
H512        H  0.10200095  0.40139254  0.95381421     0.13500
H513        H  0.17905657  0.47124908  0.86698228     0.13500
C514        C  0.20478657  0.43620286  0.89766187     0.63000
F515        F  0.05169718  0.41462762  0.89905313    -0.22100
F516        F  0.08479281  0.97092307  0.92497507    -0.19500
F517        F  0.06453058  0.92081052  0.95056791    -0.19100
F518        F  0.19732873  0.40243200  0.89411977    -0.19200
F519        F  0.22844441  0.45202546  0.92171053    -0.19500
F520        F  0.22003950  0.45378059  0.87014026    -0.22200
C521        C  0.29867968  0.37510121  0.56304802    -0.05000
C522        C  0.26672139  0.34504524  0.56912679    -0.02500
C523        C  0.26408341  0.32281536  0.59403429    -0.07700
C524        C  0.29356287  0.33225952  0.61252797    -0.05000
C525        C  0.32512223  0.36277602  0.60682275     0.00900
C526        C  0.32803080  0.38446813  0.58148928    -0.07600
C527        C  0.36158060  0.41792877  0.57437376     0.62800
H528        H  0.30031823  0.39180602  0.54395164     0.13500
H529        H  0.29207190  0.31622107  0.63210764     0.13500
C530        C  0.23030599  0.28999890  0.60184289     0.63000
F531        F  0.36733868  0.44255458  0.59682059    -0.22100
F532        F  0.36055194  0.43112762  0.54527794    -0.19500
F533        F  0.38905718  0.41234321  0.57431315    -0.19100
F534        F  0.22138003  0.26632059  0.57768977    -0.19200
F535        F  0.20437642  0.29755174  0.60598755    -0.19500
F536        F  0.23275708  0.27465180  0.62915955    -0.22200
C537        C  0.29213773  0.33234063  0.88495309    -0.05000
C538        C  0.32475201  0.36156759  0.89069222     0.00900
C539        C  0.32885873  0.38405452  0.91587507    -0.07700
C540        C  0.29975766  0.37680649  0.93380544    -0.05000
C541        C  0.26722818  0.34721302  0.92848561     0.00900
C542        C  0.26316304  0.32456904  0.90346998    -0.07600
C543        C  0.22818266  0.29345020  0.89517153     0.62800
H544        H  0.28927590  0.31607195  0.86518079     0.13500
H545        H  0.30263810  0.39437205  0.95260316     0.13500
C546        C  0.36294086  0.41614174  0.92473808     0.63000
F547        F  0.22928281  0.27792791  0.86743138    -0.22100
F548        F  0.20414375  0.30367982  0.89148447    -0.19500
F549        F  0.21752241  0.26897602  0.91875441    -0.19100
F550        F  0.39123960  0.41766133  0.91048626    -0.19200
F551        F  0.36786118  0.41657537  0.95686192    -0.19500
F552        F  0.36178540  0.44531598  0.91649886    -0.22200
C553        C  0.15969151  0.45080803  0.61720300    -0.05000
C554        C  0.13628547  0.46057521  0.60668086     0.00900
C555        C  0.12136644  0.45018816  0.57636988    -0.07700
C556        C  0.13142578  0.43135170  0.55726768    -0.05000
C557        C  0.15453905  0.42132220  0.56784048     0.00900
C558        C  0.16899554  0.43109189  0.59829302    -0.07600
C559        C  0.19279124  0.41933870  0.61118957     0.62800
H560        H  0.17023058  0.45836725  0.64067290     0.13500
H561        H  0.12003136  0.42318636  0.53409780     0.13500
C562        C  0.09413633  0.45712672  0.56312358     0.63000
F563        F  0.20209211  0.42963194  0.64205025    -0.22100
F564        F  0.22264380  0.43334672  0.59344463    -0.19500
F565        F  0.17633942  0.38357355  0.61010977    -0.19100
F566        F  0.07237704  0.95994941  0.59141366    -0.19200
F567        F  0.06632825  0.42637722  0.55239332    -0.19500
F568        F  0.10804800  0.47982895  0.53816924    -0.22200
C569        C  0.03898460  0.17134961  0.57768698    -0.05000
C570        C  0.03846349  0.17626867  0.61013446     0.00900
C571        C  0.05679226  0.21028109  0.62281800    -0.07700
C572        C  0.07582609  0.23831398  0.60226264    -0.05000
C573        C  0.07728890  0.23302872  0.57000758     0.00900
C574        C  0.05835805  0.19924511  0.55734796    -0.07600
C575        C  0.05971246  0.19276728  0.52256229     0.62800
H576        H  0.02500632  0.14527986  0.56849235     0.13500
H577        H  0.09100432  0.26442860  0.61138305     0.13500
C578        C  0.55715777  0.22143589  0.65734581     0.63000
F579        F  0.03688286  0.15860446  0.51446579    -0.22100
F580        F  0.09269471  0.20051727  0.51478409    -0.19500
F581        F  0.05130739  0.21349961  0.50524778    -0.19100
F582        F  0.57670875  0.21069907  0.67342572    -0.19200
F583        F  0.52431322  0.20529311  0.66998997    -0.19500
F584        F  0.57198039  0.25674298  0.66199343    -0.22200
C585        C  0.42225387  0.12318634  0.56634322    -0.05000
C586        C  0.42113718  0.15355607  0.57102773     0.00900
C587        C  0.44052537  0.17640519  0.59580951    -0.07700
C588        C  0.46026748  0.16766646  0.61519641    -0.05000
C589        C  0.46076075  0.13694924  0.61082340     0.00900
C590        C  0.44149303  0.11420231  0.58598183    -0.07600
C591        C  0.94287545  0.07924716  0.57407680     0.62800
H592        H  0.40705974  0.10592835  0.54742952     0.13500
H593        H  0.47482018  0.18437509  0.63451243     0.13500
C594        C  0.43911215  0.20883622  0.60283583     0.63000
F595        F  0.92420659  0.05491504  0.59688460    -0.22100
F596        F  0.97617899  0.08522133  0.57358889    -0.19500
F597        F  0.92787109  0.06535088  0.54526116    -0.19100
F598        F  0.40516366  0.20017461  0.60719109    -0.19200
F599        F  0.45326352  0.23193648  0.57818906    -0.19500
F600        F  0.45741173  0.22543462  0.62975449    -0.22200
C601        C  0.37413088  0.07302113  0.44036674    -0.05000
C602        C  0.34472759  0.07470003  0.43279155     0.00900
C603        C  0.32454745  0.05631061  0.40639066    -0.07700
C604        C  0.33481662  0.03689295  0.38823057    -0.05000
C605        C  0.36470227  0.03574547  0.39539223     0.00900
C606        C  0.38501353  0.05444588  0.42182898    -0.07600
C607        C  0.41875029  0.05696402  0.43138530     0.62800
H608        H  0.38966127  0.08761974  0.46042000     0.13500
H609        H  0.32011985  0.02326781  0.36755493     0.13500
C610        C  0.29240026  0.05726351  0.39746445     0.63000
F611        F  0.44510139  0.09119778  0.42963433    -0.22100
F612        F  0.42770259  0.03758680  0.41285282    -0.19500
F613        F  0.41624042  0.04586012  0.46208273    -0.19100
F614        F  0.30158179  0.09020467  0.38762987    -0.19200
F615        F  0.27064639  0.04835583  0.42310917    -0.19500
F616        F  0.27429742  0.03437266  0.37334250    -0.22200
C617        C  0.20059405  0.07725030  0.56389523    -0.05000
C618        C  0.23213611  0.07886067  0.56965844     0.00900
C619        C  0.23454191  0.05969157  0.59497387    -0.07700
C620        C  0.20515704  0.03977880  0.61373246    -0.05000
C621        C  0.17348915  0.03757947  0.60750287     0.00900
C622        C  0.17113515  0.05701337  0.58240635    -0.07600
C623        C  0.13807682  0.05717334  0.57545718     0.62800
H624        H  0.19936039  0.09257664  0.54488967     0.13500
H625        H  0.20691484  0.02637811  0.63407527     0.13500
C626        C  0.26818836  0.06130029  0.60309357     0.63000
F627        F  0.11076114  0.02370863  0.57239778    -0.22100
F628        F  0.14041929  0.07451502  0.54785728    -0.19500
F629        F  0.13117047  0.07341612  0.59949643    -0.19100
F630        F  0.29406841  0.09538991  0.60756969    -0.19200
F631        F  0.27735673  0.04691031  0.57902482    -0.19500
F632        F  0.26543533  0.04318040  0.63028987    -0.22200
C633        C  0.42883598  0.29475827  0.43708191    -0.05000
C634        C  0.42179679  0.26199672  0.42727842     0.00900
C635        C  0.43363271  0.25819776  0.39757911    -0.07700
C636        C  0.45127269  0.28756073  0.37821897    -0.05000
C637        C  0.45767587  0.32023557  0.38785786     0.00900
C638        C  0.44580001  0.32390696  0.41761101    -0.07600
C639        C  0.44931743  0.35727308  0.42999250     0.62800
H640        H  0.41940190  0.29731271  0.45974444     0.13500
H641        H  0.46030559  0.28528824  0.35527907     0.13500
C642        C  0.42888606  0.22374423  0.38692688     0.63000
F643        F  0.47100836  0.36829494  0.45580586    -0.22100
F644        F  0.41718938  0.35108644  0.43924703    -0.19500
F645        F  0.46211649  0.38362950  0.40816081    -0.19100
F646        F  0.39429811  0.20018109  0.38168351    -0.19200
F647        F  0.44130089  0.21098804  0.40978378    -0.19500
F648        F  0.95400613  0.22814996  0.36612109    -0.22200
C649        C  0.17384996  0.12767072  0.42335810    -0.05000
C650        C  0.17972489  0.13904599  0.39216501     0.00900
C651        C  0.21400523  0.15884959  0.38074914    -0.07700
C652        C  0.24131395  0.16592461  0.40115015    -0.05000
C653        C  0.23549911  0.15447653  0.43240153     0.00900
C654        C  0.20115659  0.13502952  0.44390952    -0.07600
C655        C  0.19302775  0.12031743  0.47702761     0.62800
H656        H  0.14747267  0.11195523  0.43123891     0.13500
H657        H  0.26762754  0.18057226  0.39248841     0.13500
C658        C  0.22355335  0.17289963  0.34752170     0.63000
F659        F  0.15785758  0.09898709  0.48180242    -0.22100
F660        F  0.20502324  0.14693792  0.49871155    -0.19500
F661        F  0.20849185  0.10091997  0.48233637    -0.19100
F662        F  0.19561830  0.16732925  0.32954086    -0.19200
F663        F  0.23951969  0.15739992  0.33266922    -0.19500
F664        F  0.24642338  0.20826033  0.34876329    -0.22200
C665        C  0.37463354  0.32957310  0.57755219    -0.05000
C666        C  0.36146773  0.32275236  0.60820953     0.00900
C667        C  0.34199291  0.28799777  0.61892980    -0.07700
C668        C  0.33646859  0.26123884  0.59826812    -0.05000
C669        C  0.35052672  0.26818477  0.56797915     0.00900
C670        C  0.36962963  0.30277688  0.55715638    -0.07600
C671        C  0.38437819  0.31123585  0.52415189     0.62800
H672        H  0.38988279  0.35625365  0.57003836     0.13500
H673        H  0.32184585  0.23458417  0.60622776     0.13500
C674        C  0.32685996  0.27736260  0.65171164     0.63000
F675        F  0.40012770  0.34628977  0.51770244    -0.22100
F676        F  0.35812984  0.29357344  0.50251577    -0.19500
F677        F  0.40881931  0.30157513  0.52061252    -0.19100
F678        F  0.29147838  0.25546113  0.64940241    -0.19200
F679        F  0.33293698  0.30488720  0.67065493    -0.19500
F680        F  0.34088084  0.25976830  0.66622794    -0.22200
C681        C  0.23757433  0.07986706  0.89868810    -0.05000
C682        C  0.23325865  0.07622274  0.93132386     0.00900
C683        C  0.20092691  0.05105816  0.94392426    -0.07700
C684        C  0.17301589  0.03282436  0.92332341    -0.05000
C685        C  0.17684577  0.03724273  0.89068268     0.00900
C686        C  0.21006914  0.05997596  0.87794785    -0.07600
C687        C  0.21684350  0.06357023  0.84278507     0.62800
H688        H  0.26264025  0.09897466  0.88949175     0.13500
H689        H  0.14787767  0.01475502  0.93295468     0.13500
C690        C  0.19417554  0.04177997  0.97847510     0.63000
F691        F  0.25170537  0.07814730  0.83638983    -0.22100
F692        F  0.20595734  0.08464611  0.82995022    -0.19500
F693        F  0.19964060  0.03148621  0.82830341    -0.19100
F694        F  0.16805266  0.04697354  0.98881212    -0.19200
F695        F  0.22286896  0.06077337  0.99727897    -0.19500
F696        F  0.18350662  0.00711273  0.98208022    -0.22200
C697        C  0.24191327  0.16695361  0.10096424    -0.05000
C698        C  0.23547318  0.15792964  0.06901692     0.00900
C699        C  0.20089740  0.14139912  0.05766080    -0.07700
C700        C  0.17410894  0.13354461  0.07906568    -0.05000
C701        C  0.18062401  0.14191716  0.11097751     0.00900
C702        C  0.21505630  0.15924780  0.12224909    -0.07600
C703        C  0.22352552  0.16854446  0.15672368     0.62800
H704        H  0.26830375  0.17940790  0.10939023     0.13500
H705        H  0.14754937  0.12011334  0.07116721     0.13500
C706        C  0.19185003  0.13094056  0.02346819     0.63000
F707        F  0.21366364  0.13885940  0.17393131    -0.22100
F708        F  0.20640882  0.18454155  0.16803622    -0.19500
F709        F  0.25856387  0.19093972  0.16137894    -0.19100
F710        F  0.20559898  0.11104492  0.01407253    -0.19200
F711        F  0.20498074  0.16024421  0.00492434    -0.19500
F712        F  0.15649747  0.11163810  0.01856962    -0.22200
C713        C  0.42779205  0.12801629  0.94128341    -0.05000
C714        C  0.42084267  0.15351570  0.93106123     0.00900
C715        C  0.43380965  0.17002993  0.90182826    -0.07700
C716        C  0.45356217  0.16021611  0.88372554    -0.05000
C717        C  0.46050917  0.13467172  0.89405729     0.00900
C718        C  0.44691078  0.11774155  0.92307262    -0.07600
C719        C  0.93266304  0.07604728  0.92223727     0.62800
H720        H  0.41723664  0.11518219  0.96354247     0.13500
H721        H  0.46338392  0.17206013  0.86103541     0.13500
C722        C  0.42561452  0.19668767  0.88931587     0.63000
F723        F  0.89882525  0.05156443  0.91493840    -0.22100
F724        F  0.93803039  0.07336376  0.95386350    -0.19500
F725        F  0.95403666  0.06825810  0.90551370    -0.19100
F726        F  0.43976584  0.22526642  0.90890039    -0.19200
F727        F  0.39018447  0.18246998  0.88786116    -0.19500
F728        F  0.43887658  0.20780804  0.85948280    -0.22200
C729        C  0.33445794  0.04006055  0.11375962    -0.05000
C730        C  0.36492605  0.03966834  0.10777914     0.00900
C731        C  0.38577940  0.05820694  0.08169271    -0.07700
C732        C  0.37527214  0.07675231  0.06254892    -0.05000
C733        C  0.34555685  0.07822068  0.06936338     0.00900
C734        C  0.32443109  0.05923415  0.09500025    -0.07600
C735        C  0.29128225  0.05896690  0.10216196     0.62800
H736        H  0.31895309  0.02587692  0.13377206     0.13500
H737        H  0.39102956  0.09156199  0.04278067     0.13500
C738        C  0.41946001  0.05935082  0.07455697     0.63000
F739        F  0.27272265  0.03606281  0.12606359    -0.22100
F740        F  0.27057778  0.04911063  0.07565385    -0.19500
F741        F  0.29889313  0.09166930  0.11129931    -0.19100
F742        F  0.41403720  0.02623782  0.07264674    -0.19200
F743        F  0.44325362  0.07716989  0.09803320    -0.19500
F744        F  0.43364559  0.07586492  0.04636471    -0.22200
C745        C  0.46050753  0.29666237  0.11259394    -0.05000
C746        C  0.46466483  0.32848818  0.10297065     0.00900
C747        C  0.44749275  0.32986002  0.07551350    -0.07700
C748        C  0.42702051  0.29916566  0.05860182    -0.05000
C749        C  0.42249153  0.26734817  0.06845969     0.00900
C750        C  0.43948912  0.26585114  0.09582842    -0.07600
C751        C  0.43554889  0.23200483  0.10717793     0.62800
H752        H  0.47308506  0.29598568  0.13404774     0.13500
H753        H  0.41353327  0.29989256  0.03777878     0.13500
C754        C  0.44898441  0.36225113  0.06296603     0.63000
F755        F  0.45749237  0.23705220  0.13204670    -0.22100
F756        F  0.44317552  0.21636881  0.08304341    -0.19500
F757        F  0.40199860  0.21008497  0.11709725    -0.19100
F758        F  0.47042187  0.39171994  0.07999245    -0.19200
F759        F  0.41611263  0.35750410  0.06335128    -0.19500
F760        F  0.46063364  0.36768632  0.03226216    -0.22200
C761        C  0.36966064  0.32698191  0.91838852    -0.05000
C762        C  0.35879164  0.31943970  0.88708844     0.00900
C763        C  0.34116770  0.28462452  0.87641069    -0.07700
C764        C  0.33450515  0.25826266  0.89807453    -0.05000
C765        C  0.34665177  0.26601178  0.92906374     0.00900
C766        C  0.36459723  0.30084274  0.93952220    -0.07600
C767        C  0.37876143  0.31041787  0.97268096     0.62800
H768        H  0.38347464  0.35384022  0.92576298     0.13500
H769        H  0.32141265  0.23145492  0.89055334     0.13500
C770        C  0.33098008  0.27533198  0.84216315     0.63000
F771        F  0.39333073  0.34551384  0.97849371    -0.22100
F772        F  0.40406052  0.30207177  0.97715070    -0.19500
F773        F  0.35243684  0.29252980  0.99409815    -0.19100
F774        F  0.36029090  0.28664145  0.82409764    -0.19200
F775        F  0.31300860  0.29062984  0.83136404    -0.19500
F776        F  0.31019485  0.23989740  0.83796829    -0.22200
Zn777      Zn  0.33027010  0.66645182  0.04381279     1.49700
Zn778      Zn  0.37375002  0.70372231  0.98216057     1.49400
Zn779      Zn  0.32661957  0.62183222  0.98426308     1.49100
Zn780      Zn  0.29072977  0.66788753  0.98353347     1.49500
O781        O  0.33033879  0.66502234  0.99814824    -1.83400
O782        O  0.36813915  0.71242672  0.05936729    -0.74000
O783        O  0.40246162  0.68772658  0.95794002    -0.73800
O784        O  0.33098998  0.59604188  0.02096397    -0.73300
O785        O  0.40141003  0.73666542  0.01744298    -0.74000
O786        O  0.33865884  0.63019525  0.06161011    -0.73600
O787        O  0.36612366  0.63107745  0.95592652    -0.74200
O788        O  0.25959502  0.62579332  0.95755542    -0.73600
O789        O  0.36318400  0.73226779  0.95339398    -0.74300
O790        O  0.28221978  0.59180090  0.96050283    -0.73700
O791        O  0.30639487  0.71085556  0.95709217    -0.74200
O792        O  0.26101783  0.66727554  0.01960791    -0.74100
O793        O  0.28527492  0.65897071  0.06117400    -0.73900
C794        C  0.39488475  0.73709846  0.04650274     0.77900
C795        C  0.39487134  0.65766866  0.94853638     0.78400
C796        C  0.33738743  0.60350667  0.04999428     0.77300
C797        C  0.25880867  0.59768999  0.95120363     0.77700
C798        C  0.33616728  0.73332997  0.94686739     0.78800
C799        C  0.26074446  0.66130222  0.04884616     0.77900
Zn800      Zn  0.33518215  0.66449251  0.45430804     1.49700
Zn801      Zn  0.38005186  0.70479282  0.51509870     1.49400
Zn802      Zn  0.29869698  0.67146172  0.51516183     1.49100
Zn803      Zn  0.33072366  0.62180048  0.51530729     1.49500
O804        O  0.33636669  0.66563790  0.50013433    -1.83400
O805        O  0.37348872  0.70957431  0.43708111    -0.74000
O806        O  0.37181890  0.73626703  0.54347569    -0.73800
O807        O  0.26729898  0.66785203  0.47985886    -0.73300
O808        O  0.40716589  0.73550005  0.47858710    -0.74000
O809        O  0.28964586  0.65699652  0.43807367    -0.73600
O810        O  0.31543531  0.71617396  0.53928564    -0.74200
O811        O  0.28580025  0.59436530  0.53989166    -0.73600
O812        O  0.40771370  0.68777727  0.53919128    -0.74300
O813        O  0.26806166  0.63220163  0.54339227    -0.73700
O814        O  0.37058759  0.63121928  0.54342959    -0.74200
O815        O  0.33360872  0.59336808  0.47952240    -0.74100
O816        O  0.34139745  0.62601560  0.43755666    -0.73900
C817        C  0.40041789  0.73473536  0.44941685     0.77900
C818        C  0.34529492  0.73851050  0.54945023     0.78400
C819        C  0.26569431  0.65984388  0.45101068     0.77300
C820        C  0.26455440  0.60295380  0.55005483     0.77700
C821        C  0.39972173  0.65797899  0.54968878     0.78800
C822        C  0.33935707  0.59937676  0.45023325     0.77900
N823        N  0.40267192  0.94759549  0.75029945    -0.35900
N824        N  0.43160544  0.49948120  0.79855061    -0.56400
N825        N  0.45849053  0.55141623  0.75053585    -0.35800
N826        N  0.43257271  0.50038076  0.70110599    -0.56400
C827        C  0.38520584  0.92847364  0.77551022     0.27700
C828        C  0.38586321  0.92909760  0.72452648     0.27700
C829        C  0.45998260  0.56992774  0.77610985     0.27700
C830        C  0.46082922  0.57042837  0.72513576     0.27700
C831        C  0.42026598  0.97000461  0.81697704     0.36300
C832        C  0.45193332  0.52732580  0.81656877     0.36400
C833        C  0.42110805  0.97208863  0.68430946     0.36300
C834        C  0.45336134  0.52863291  0.68382589     0.36400
C835        C  0.35636569  0.89790633  0.76571488    -0.21100
C836        C  0.35680125  0.89829357  0.73337064    -0.21100
C837        C  0.46229528  0.60062812  0.76691259    -0.21100
C838        C  0.46284912  0.60095961  0.73457611    -0.21100
C839        C  0.43524288  0.97965975  0.84648139    -0.22200
C840        C  0.45649439  0.51684717  0.84586837    -0.22200
C841        C  0.43596944  0.98293220  0.65492518    -0.22200
C842        C  0.45778614  0.51885814  0.65412749    -0.22200
C843        C  0.39778064  0.93588300  0.80653839    -0.17500
C844        C  0.39903958  0.93749995  0.69378044    -0.17500
C845        C  0.46603362  0.56283231  0.69425429    -0.17500
C846        C  0.46427647  0.56174027  0.80705145    -0.17500
H847        H  0.33805615  0.87673907  0.78032747     0.15400
H848        H  0.33886424  0.87752550  0.71814056     0.15400
H849        H  0.46514339  0.62137763  0.78193755     0.15400
H850        H  0.46618926  0.62202716  0.71975914     0.15400
H851        H  0.43269466  0.96283937  0.86573565     0.13700
H852        H  0.47060144  0.53311064  0.86561911     0.13700
H853        H  0.43347711  0.96687492  0.63498558     0.13700
H854        H  0.47198025  0.53562044  0.63469677     0.13700
H855        H  0.42771358  0.96895415  0.75066849     0.26900
H856        H  0.46184241  0.53010581  0.75046196     0.26900
N857        N  0.09507274  0.54310880  0.74945846    -0.35900
N858        N  0.07083866  0.57014250  0.79807109    -0.56400
N859        N  0.04524863  0.59559865  0.74877900    -0.35800
N860        N  0.07072608  0.56980999  0.70019936    -0.56400
C861        C  0.11153979  0.54081979  0.77512628     0.27700
C862        C  0.11174611  0.54091855  0.72395825     0.27700
C863        C  0.04334802  0.61249398  0.77429311     0.27700
C864        C  0.04320401  0.61222985  0.72311913     0.27700
C865        C  0.07782709  0.54959048  0.81593396     0.36300
C866        C  0.05083551  0.57810449  0.81557479     0.36400
C867        C  0.07802568  0.54929664  0.68265721     0.36300
C868        C  0.05082473  0.57760155  0.68229467     0.36400
C869        C  0.13958563  0.53813955  0.76587599    -0.21100
C870        C  0.13974582  0.53824903  0.73349047    -0.21100
C871        C  0.04107233  0.64077627  0.76477799    -0.21100
C872        C  0.04097056  0.64059981  0.73239415    -0.21100
C873        C  0.06298342  0.54518881  0.84532305    -0.22200
C874        C  0.04584350  0.56332016  0.84509704    -0.22200
C875        C  0.06343701  0.54472515  0.65307168    -0.22200
C876        C  0.04615369  0.56271546  0.65283756    -0.22200
C877        C  0.09895046  0.53648011  0.80618789    -0.17500
C878        C  0.09937809  0.53656395  0.69278186    -0.17500
C879        C  0.03861407  0.59951883  0.69204518    -0.17500
C880        C  0.03876309  0.60003570  0.80544035    -0.17500
H881        H  0.15700888  0.53467393  0.78087051     0.15400
H882        H  0.15734059  0.53490233  0.71865821     0.15400
H883        H  0.03799035  0.65858637  0.77961767     0.15400
H884        H  0.03783370  0.65825835  0.71741150     0.15400
H885        H  0.06477976  0.53092968  0.86497537     0.13700
H886        H  0.03180735  0.56575482  0.86454522     0.13700
H887        H  0.06548937  0.53045094  0.63358062     0.13700
H888        H  0.03232982  0.56508595  0.63312009     0.13700
H889        H  0.07067285  0.54036510  0.74932358     0.26900
H890        H  0.04210290  0.57097551  0.74890392     0.26900
N891        N  0.44682393  0.90319943  0.74988182    -0.35900
N892        N  0.99828729  0.92807388  0.79977041    -0.56400
N893        N  0.04990145  0.95288942  0.75082427    -0.35800
N894        N  0.99872130  0.92696798  0.70231756    -0.56400
C895        C  0.42755327  0.88584031  0.77508319     0.27700
C896        C  0.42824770  0.88662176  0.72403938     0.27700
C897        C  0.06846630  0.95485983  0.77646007     0.27700
C898        C  0.06871474  0.95465366  0.72543863     0.27700
C899        C  0.46948080  0.91976930  0.81677495     0.36300
C900        C  0.02654899  0.94823550  0.81730789     0.36400
C901        C  0.47102072  0.92259068  0.68390723     0.36300
C902        C  0.02674707  0.94696810  0.68449441     0.36400
C903        C  0.39675891  0.85737484  0.76520084    -0.21100
C904        C  0.39724161  0.85783620  0.73286925    -0.21100
C905        C  0.09900556  0.95687979  0.76733519    -0.21100
C906        C  0.09915862  0.95676176  0.73497478    -0.21100
C907        C  0.47939519  0.93369974  0.84663981    -0.22200
C908        C  0.01686507  0.95319023  0.84685593    -0.22200
C909        C  0.48158284  0.93830096  0.65479740    -0.22200
C910        C  0.01674353  0.95148247  0.65495940    -0.22200
C911        C  0.43525487  0.89804568  0.80626626    -0.17500
C912        C  0.43669070  0.89989646  0.69326040    -0.17500
C913        C  0.06094425  0.95925653  0.69441248    -0.17500
C914        C  0.06064873  0.96012173  0.80725758    -0.17500
H915        H  0.37538925  0.83932233  0.77972047     0.15400
H916        H  0.37637001  0.84017877  0.71765526     0.15400
H917        H  0.11982314  0.96006485  0.78238889     0.15400
H918        H  0.12005217  0.95977113  0.72017734     0.15400
H919        H  0.46276605  0.93051643  0.86624787     0.13700
H920        H  0.03361628  0.96713307  0.86641904     0.13700
H921        H  0.46542660  0.93618743  0.63509527     0.13700
H922        H  0.03323891  0.96542273  0.63533661     0.13700
H923        H  0.46841396  0.92807272  0.75033221     0.26900
H924        H  0.02878317  0.95642731  0.75069136     0.26900
C925        C  0.48548209  0.63036717  0.63216849     0.03000
C926        C  0.01720045  0.64501708  0.62833346     0.03000
C927        C  0.03576839  0.63584595  0.64880010    -0.17500
C928        C  0.01845910  0.60805736  0.66970262     0.03000
C929        C  0.48586506  0.59218979  0.67251556     0.03000
C930        C  0.46786029  0.60204652  0.65239441    -0.17500
H931        H  0.43985835  0.58762045  0.65266024     0.05000
H932        H  0.06377064  0.65073891  0.64878859     0.05000
C933        C  0.12625018  0.97982967  0.62944812     0.03000
C934        C  0.14539273  0.51737167  0.62811696     0.03000
C935        C  0.13604234  0.53507024  0.64948830    -0.17500
C936        C  0.10850235  0.51692869  0.67040312     0.03000
C937        C  0.08994099  0.97931923  0.67225711     0.03000
C938        C  0.09957720  0.96169047  0.65129996    -0.17500
H939        H  0.08586577  0.93361782  0.65165927     0.05000
H940        H  0.15013852  0.56315023  0.64966108     0.05000
C941        C  0.34882624  0.86726516  0.86811387     0.03000
C942        C  0.36573599  0.84800630  0.86671350     0.03000
C943        C  0.39490687  0.85954258  0.84755609    -0.17500
C944        C  0.40596892  0.88831634  0.82806083     0.03000
C945        C  0.38790089  0.90639768  0.82810057     0.03000
C946        C  0.35955809  0.89573674  0.84803121    -0.17500
H947        H  0.34605463  0.90997081  0.84821956     0.05000
H948        H  0.40901938  0.84592159  0.84764410     0.05000
C949        C  0.36983716  0.85278910  0.62960474     0.03000
C950        C  0.35224087  0.87142673  0.62956851     0.03000
C951        C  0.36180898  0.89844233  0.65114583    -0.17500
C952        C  0.38985980  0.90875232  0.67131139     0.03000
C953        C  0.40812514  0.89088638  0.67079471     0.03000
C954        C  0.39804114  0.86317354  0.64995452    -0.17500
H955        H  0.41175687  0.84914707  0.65003839     0.05000
H956        H  0.34710907  0.91141395  0.65248935     0.05000
C957        C  0.12728475  0.98020576  0.87045539     0.03000
C958        C  0.14375566  0.51416074  0.86989746     0.03000
C959        C  0.13418919  0.53294137  0.85006052    -0.17500
C960        C  0.10699810  0.51591783  0.82854290     0.03000
C961        C  0.08971234  0.98013447  0.82926750     0.03000
C962        C  0.09998912  0.96234658  0.84920649    -0.17500
H963        H  0.08681537  0.93433981  0.84788452     0.05000
H964        H  0.14829198  0.56098107  0.85101992     0.05000
C965        C  0.48330294  0.62697373  0.87199824     0.03000
C966        C  0.01890978  0.64617975  0.86969010     0.03000
C967        C  0.03684793  0.63682344  0.84864894    -0.17500
C968        C  0.01898761  0.60916625  0.82760041     0.03000
C969        C  0.48385261  0.59059660  0.82953608     0.03000
C970        C  0.46579135  0.60035402  0.84981639    -0.17500
H971        H  0.43780824  0.58669385  0.84870863     0.05000
H972        H  0.06485657  0.65086831  0.84895137     0.05000
Zn973      Zn  0.20383282  0.87610249  0.51424568     1.49700
Zn974      Zn  0.17081540  0.79423214  0.51384012     1.49400
Zn975      Zn  0.12161247  0.82674460  0.51262612     1.49100
Zn976      Zn  0.16601450  0.83195696  0.45313648     1.49500
O977        O  0.16547822  0.83232641  0.49874305    -1.83400
O978        O  0.23376496  0.86721387  0.54295470    -0.74000
O979        O  0.13068998  0.76280343  0.54065164    -0.73800
O980        O  0.13054332  0.86582288  0.54169944    -0.73300
O981        O  0.21429824  0.81090630  0.53947894    -0.74000
O982        O  0.18701388  0.90340950  0.53896952    -0.73600
O983        O  0.09329324  0.78115855  0.53625782    -0.74200
O984        O  0.12889945  0.83899824  0.43493998    -0.73600
O985        O  0.16914460  0.76368876  0.47849926    -0.74300
O986        O  0.09512605  0.83121996  0.47587242    -0.73700
O987        O  0.15929359  0.78706836  0.43680276    -0.74200
O988        O  0.21136125  0.86986689  0.43710790    -0.74100
O989        O  0.23560564  0.90399538  0.47859542    -0.73900
C990        C  0.23601005  0.84086976  0.54993101     0.77900
C991        C  0.10144494  0.75947841  0.54630234     0.78400
C992        C  0.15700133  0.89479280  0.54902150     0.77300
C993        C  0.10213911  0.83729861  0.44671930     0.77700
C994        C  0.16257786  0.76324529  0.44937503     0.78800
C995        C  0.23588854  0.89707977  0.44959235     0.77900
Zn996      Zn  0.20497077  0.87649779  0.98551190     1.49700
Zn997      Zn  0.12300757  0.82829335  0.98700854     1.49400
Zn998      Zn  0.17050952  0.79440444  0.98820726     1.49100
Zn999      Zn  0.16712086  0.83553910  0.04784496     1.49500
O1000       O  0.16630607  0.83361154  0.00209491    -1.83400
O1001       O  0.18941756  0.90461248  0.96073638    -0.74000
O1002       O  0.09465241  0.78327148  0.96284436    -0.73800
O1003       O  0.21388341  0.80953494  0.96258809    -0.73300
O1004       O  0.13299050  0.86753362  0.95803644    -0.74000
O1005       O  0.23317287  0.86556828  0.95675527    -0.73600
O1006       O  0.13023279  0.76272270  0.96107418    -0.74200
O1007       O  0.16090857  0.79140020  0.06603106    -0.73600
O1008       O  0.09562546  0.83261270  0.02268444    -0.74300
O1009       O  0.16809466  0.76510478  0.02487984    -0.73700
O1010       O  0.12897473  0.84248061  0.06460749    -0.74200
O1011       O  0.21311098  0.87435897  0.06290035    -0.74100
O1012       O  0.23769903  0.90529426  0.02013617    -0.73900
C1013       C  0.15953222  0.89639120  0.95071438     0.77900
C1014       C  0.10192919  0.76075574  0.95352746     0.78400
C1015       C  0.23520804  0.83889401  0.95077694     0.77300
C1016       C  0.16279992  0.76645768  0.05405302     0.77700
C1017       C  0.10206148  0.83965798  0.05178991     0.78800
C1018       C  0.23841011  0.90020446  0.04943650     0.77900
N1019       N  0.05183419  0.59659553  0.25424745    -0.35900
N1020       N  0.49896333  0.57032368  0.29892907    -0.56400
N1021       N  0.44958695  0.54662289  0.24839869    -0.35800
N1022       N  0.50302254  0.57427315  0.20163663    -0.56400
C1023       C  0.07004517  0.61206560  0.28052102     0.27700
C1024       C  0.07119415  0.61530447  0.22958550     0.27700
C1025       C  0.42984630  0.54353114  0.27346650     0.27700
C1026       C  0.43207731  0.54608806  0.22241986     0.27700
C1027       C  0.02704700  0.57401528  0.31963602     0.36300
C1028       C  0.47023233  0.54884629  0.31525174     0.36400
C1029       C  0.02976710  0.58290626  0.18735110     0.36300
C1030       C  0.47570045  0.55469339  0.18285451     0.36400
C1031       C  0.10087093  0.64164388  0.27255654    -0.21100
C1032       C  0.10161389  0.64365384  0.24022759    -0.21100
C1033       C  0.39987458  0.54216400  0.26344509    -0.21100
C1034       C  0.40128091  0.54377538  0.23105657    -0.21100
C1035       C  0.01624192  0.55728349  0.34829904    -0.22200
C1036       C  0.47895644  0.54250563  0.34471147    -0.22200
C1037       C  0.02006642  0.56919299  0.15739493    -0.22200
C1038       C  0.48683738  0.55054103  0.15373837    -0.22200
C1039       C  0.06149177  0.59707829  0.31067785    -0.17500
C1040       C  0.06389291  0.60417187  0.19814015    -0.17500
C1041       C  0.44115293  0.54235094  0.19157234    -0.17500
C1042       C  0.43648304  0.53711257  0.30435656    -0.17500
H1043       H  0.12149151  0.65881162  0.28828243     0.15400
H1044       H  0.12286406  0.66264654  0.22612338     0.15400
H1045       H  0.37845122  0.53844896  0.27785497     0.15400
H1046       H  0.38112111  0.54148934  0.21558493     0.15400
H1047       H  0.03225556  0.55865364  0.36784811     0.13700
H1048       H  0.46161126  0.52720702  0.36342601     0.13700
H1049       H  0.03680645  0.57215262  0.13795057     0.13700
H1050       H  0.47110921  0.53714118  0.13348658     0.13700
H1051       H  0.03051012  0.57157790  0.25296825     0.26900
H1052       H  0.47066681  0.54301766  0.24876763     0.26900
N1053       N  0.45593666  0.90368169  0.24884095    -0.35900
N1054       N  0.43091362  0.93080813  0.20088283    -0.56400
N1055       N  0.40672896  0.95676448  0.25041318    -0.35800
N1056       N  0.43057617  0.92849782  0.29846743    -0.56400
C1057       C  0.45718640  0.88694066  0.22291976     0.27700
C1058       C  0.45788973  0.88648800  0.27407562     0.27700
C1059       C  0.39028274  0.95950372  0.22497057     0.27700
C1060       C  0.38962017  0.95782555  0.27607192     0.27700
C1061       C  0.45025534  0.92262669  0.18272160     0.36300
C1062       C  0.42417934  0.95189867  0.18365231     0.36400
C1063       C  0.45076171  0.92056920  0.31577035     0.36300
C1064       C  0.42321535  0.94852013  0.31669179     0.36400
C1065       C  0.45894065  0.85817824  0.23175274    -0.21100
C1066       C  0.45940898  0.85790591  0.26414935    -0.21100
C1067       C  0.36182030  0.96131102  0.23447586    -0.21100
C1068       C  0.36139937  0.96024721  0.26684464    -0.21100
C1069       C  0.45520929  0.93794250  0.15345295    -0.22200
C1070       C  0.43865744  0.95659645  0.15405363    -0.22200
C1071       C  0.45565375  0.93498282  0.34547077    -0.22200
C1072       C  0.43803800  0.95263146  0.34609871    -0.22200
C1073       C  0.46155574  0.89987541  0.19197462    -0.17500
C1074       C  0.46284734  0.89876428  0.30531743    -0.17500
C1075       C  0.40175139  0.96135269  0.30723805    -0.17500
C1076       C  0.40299835  0.96464172  0.19394443    -0.17500
H1077       H  0.46142461  0.84032693  0.21644256     0.15400
H1078       H  0.46227347  0.83977922  0.27871024     0.15400
H1079       H  0.34422834  0.96474569  0.21969357     0.15400
H1080       H  0.34343394  0.96273132  0.28191299     0.15400
H1081       H  0.46865501  0.93537033  0.13357804     0.13700
H1082       H  0.43678365  0.97117842  0.13472797     0.13700
H1083       H  0.46985905  0.93254648  0.36479289     0.13700
H1084       H  0.43590359  0.96635049  0.36603580     0.13700
H1085       H  0.45949811  0.92848342  0.24926269     0.26900
H1086       H  0.43127959  0.95982861  0.25041866     0.26900
C1087       C  0.35654391  0.97959532  0.37332872     0.03000
C1088       C  0.37302118  0.51605131  0.37067647     0.03000
C1089       C  0.39823538  0.53408944  0.34770148    -0.17500
C1090       C  0.40713356  0.51656789  0.32592605     0.03000
C1091       C  0.39268199  0.98059737  0.33016419     0.03000
C1092       C  0.36596733  0.96215986  0.35178159    -0.17500
H1093       H  0.35210910  0.93408576  0.35155572     0.05000
H1094       H  0.41128123  0.56211713  0.34683394     0.05000
N1095       N  0.04348534  0.94871788  0.24830600    -0.35900
N1096       N  0.07064329  0.50191962  0.20197082    -0.56400
N1097       N  0.09519933  0.55132359  0.25219076    -0.35800
N1098       N  0.07065609  0.49783038  0.29928319    -0.56400
C1099       C  0.04076983  0.93048000  0.22214369     0.27700
C1100       C  0.04105946  0.92888574  0.27310422     0.27700
C1101       C  0.11192072  0.57142209  0.22716319     0.27700
C1102       C  0.11213512  0.56929737  0.27814455     0.27700
C1103       C  0.05020662  0.97455853  0.18273227     0.36300
C1104       C  0.07775252  0.53025077  0.18523248     0.36400
C1105       C  0.05109785  0.97044074  0.31544844     0.36300
C1106       C  0.07798809  0.52498277  0.31798405     0.36400
C1107       C  0.03755497  0.89910906  0.23032958    -0.21100
C1108       C  0.03772875  0.89809391  0.26265736    -0.21100
C1109       C  0.14036898  0.60212670  0.23721691    -0.21100
C1110       C  0.14045340  0.60081646  0.26952952    -0.21100
C1111       C  0.04611172  0.98596563  0.15372140    -0.22200
C1112       C  0.06317806  0.52082394  0.15556850    -0.22200
C1113       C  0.04707342  0.98006756  0.34533847    -0.22200
C1114       C  0.06304893  0.51344423  0.34725129    -0.22200
C1115       C  0.03659028  0.93980134  0.19159971    -0.17500
C1116       C  0.03714414  0.93621752  0.30447220    -0.17500
C1117       C  0.09957295  0.55981149  0.30903081    -0.17500
C1118       C  0.09935687  0.56430161  0.19608477    -0.17500
H1119       H  0.03372808  0.87843955  0.21467541     0.15400
H1120       H  0.03405780  0.87648711  0.27685558     0.15400
H1121       H  0.15806646  0.62391724  0.22285574     0.15400
H1122       H  0.15813425  0.62149282  0.28493311     0.15400
H1123       H  0.03148455  0.97032106  0.13383143     0.13700
H1124       H  0.06535199  0.53777359  0.13654275     0.13700
H1125       H  0.03245092  0.96322923  0.36457102     0.13700
H1126       H  0.06520481  0.52902732  0.36746727     0.13700
H1127       H  0.04116070  0.97061869  0.24923191     0.26900
H1128       H  0.07051610  0.52944894  0.25183112     0.26900
C1129       C  0.35631128  0.98328912  0.12983210     0.03000
C1130       C  0.37692673  0.52258176  0.12579023     0.03000
C1131       C  0.40424493  0.54055025  0.14708180    -0.17500
C1132       C  0.41308827  0.52262732  0.16842226     0.03000
C1133       C  0.39367038  0.98415679  0.17169460     0.03000
C1134       C  0.36695457  0.96587614  0.15009109    -0.17500
H1135       H  0.35391202  0.93784892  0.14948765     0.05000
H1136       H  0.41821616  0.56862838  0.14749511     0.05000
C1137       C  0.14816101  0.62696207  0.37193213     0.03000
C1138       C  0.12889871  0.64381274  0.37354617     0.03000
C1139       C  0.10010867  0.63302293  0.35402624    -0.17500
C1140       C  0.09002071  0.60555935  0.33305012     0.03000
C1141       C  0.10847777  0.58785690  0.33215671     0.03000
C1142       C  0.13700182  0.59836653  0.35193591    -0.17500
H1143       H  0.15109585  0.58473578  0.35116986     0.05000
H1144       H  0.08592151  0.64657206  0.35469054     0.05000
C1145       C  0.14719459  0.63162311  0.13319301     0.03000
C1146       C  0.12989780  0.65055839  0.13414920     0.03000
C1147       C  0.10360867  0.64185870  0.15619341    -0.17500
C1148       C  0.09305932  0.61368675  0.17630301     0.03000
C1149       C  0.10919875  0.59380466  0.17450091     0.03000
C1150       C  0.13557990  0.60254347  0.15261933    -0.17500
H1151       H  0.14733089  0.58672143  0.15095180     0.05000
H1152       H  0.09114052  0.65704334  0.15765064     0.05000
C1153       C  0.48276899  0.85350856  0.37039692     0.03000
C1154       C  0.01731596  0.86981662  0.36814692     0.03000
C1155       C  0.03504722  0.89743184  0.34713479    -0.17500
C1156       C  0.01716676  0.90667674  0.32613374     0.03000
C1157       C  0.48260397  0.88933982  0.32728634     0.03000
C1158       C  0.46481853  0.86264223  0.34910665    -0.17500
H1159       H  0.43681968  0.84894335  0.34962226     0.05000
H1160       H  0.06306797  0.91198205  0.34720400     0.05000
C1161       C  0.47991791  0.85575840  0.12492347     0.03000
C1162       C  0.01738197  0.87604890  0.12568518     0.03000
C1163       C  0.03500473  0.90295262  0.14741001    -0.17500
C1164       C  0.01689228  0.91190269  0.16838233     0.03000
C1165       C  0.48069254  0.89087171  0.16906609     0.03000
C1166       C  0.46239605  0.86435706  0.14713190    -0.17500
H1167       H  0.43438474  0.85035254  0.14731347     0.05000
H1168       H  0.06300123  0.91671538  0.14828820     0.05000
C1169       C  0.12556519  0.70560930  0.06880593    -0.05000
C1170       C  0.15627932  0.73708160  0.07402039     0.00900
C1171       C  0.17914809  0.73989396  0.09815036    -0.07700
C1172       C  0.16994712  0.71078017  0.11702133    -0.05000
C1173       C  0.13864949  0.67958405  0.11247614     0.00900
C1174       C  0.11598315  0.67666588  0.08794574    -0.07600
C1175       C  0.08142389  0.64363104  0.08239486     0.62800
H1176       H  0.10848214  0.70430455  0.05021089     0.13500
H1177       H  0.18678983  0.71231651  0.13588997     0.13500
C1178       C  0.21318883  0.77329153  0.10349349     0.63000
F1179       F  0.06685376  0.64454753  0.05402436    -0.22100
F1180       F  0.05859911  0.63951394  0.10600768    -0.19500
F1181       F  0.08543771  0.61511198  0.08195190    -0.19100
F1182       F  0.20706485  0.79922574  0.11261601    -0.19200
F1183       F  0.23217999  0.78300678  0.07599829    -0.19500
F1184       F  0.23277912  0.76970160  0.12662302    -0.22200
C1185       C  0.07545481  0.87505841  0.06096680    -0.05000
C1186       C  0.07890343  0.84709760  0.07048031     0.00900
C1187       C  0.06129174  0.82807441  0.09760373    -0.07700
C1188       C  0.04083761  0.83803652  0.11445593    -0.05000
C1189       C  0.03781611  0.86640283  0.10519996     0.00900
C1190       C  0.05587723  0.88568633  0.07820490    -0.07600
C1191       C  0.54968095  0.91243232  0.06578629     0.62800
H1192       H  0.08928410  0.88962005  0.04027037     0.13500
H1193       H  0.02760842  0.82419972  0.13556415     0.13500
C1194       C  0.06368102  0.79716759  0.10838023     0.63000
F1195       F  0.56973358  0.92816553  0.03950188    -0.22100
F1196       F  0.56003736  0.93730340  0.08903306    -0.19500
F1197       F  0.51570098  0.90062312  0.05807107    -0.19100
F1198       F  0.09718228  0.80789501  0.11740898    -0.19200
F1199       F  0.05411883  0.77351267  0.08410411    -0.19500
F1200       F  0.04220355  0.78055552  0.13368021    -0.22200
C1201       C  0.26417617  0.92575625  0.10104479    -0.05000
C1202       C  0.26924537  0.92403565  0.06862360     0.00900
C1203       C  0.30348439  0.94244949  0.05637725    -0.07700
C1204       C  0.33106218  0.96150868  0.07726955    -0.05000
C1205       C  0.32578791  0.96260533  0.10951618     0.00900
C1206       C  0.29189616  0.94439392  0.12184544    -0.07600
C1207       C  0.28493826  0.94337265  0.15691473     0.62800
H1208       H  0.23814223  0.91145470  0.11026034     0.13500
H1209       H  0.35724817  0.97526214  0.06864730     0.13500
C1210       C  0.31152824  0.94139110  0.02183043     0.63000
F1211       F  0.25011533  0.92932920  0.16312276    -0.22100
F1212       F  0.30237200  0.97633704  0.16958489    -0.19500
F1213       F  0.29572693  0.92320013  0.17182643    -0.19100
F1214       F  0.29745313  0.95684959  0.00395148    -0.19200
F1215       F  0.29813445  0.90743371  0.01229894    -0.19500
F1216       F  0.34674229  0.95891995  0.01605699    -0.22200
C1217       C  0.16207742  0.70664294  0.38282969    -0.05000
C1218       C  0.13877171  0.67356836  0.39456168     0.00900
C1219       C  0.12374033  0.67007992  0.42455535    -0.07700
C1220       C  0.13349976  0.70015427  0.44206396    -0.05000
C1221       C  0.15654196  0.73326798  0.43024159     0.00900
C1222       C  0.17158112  0.73676091  0.40028584    -0.07600
C1223       C  0.19799564  0.77189473  0.38701744     0.62800
H1224       H  0.17190658  0.70881110  0.35930376     0.13500
H1225       H  0.12180213  0.69777452  0.46481655     0.13500
C1226       C  0.09659620  0.63592388  0.43899913     0.63000
F1227       F  0.21282970  0.76879104  0.35967431    -0.22100
F1228       F  0.22415920  0.78979342  0.40868453    -0.19500
F1229       F  0.18240450  0.79082106  0.38014421    -0.19100
F1230       F  0.10891735  0.63118546  0.46718913    -0.19200
F1231       F  0.08757663  0.60746582  0.42018665    -0.19500
F1232       F  0.06701039  0.63715594  0.44482477    -0.22200
C1233       C  0.04573774  0.83602784  0.37924909    -0.05000
C1234       C  0.03802724  0.86106380  0.38938867     0.00900
C1235       C  0.05229054  0.87892685  0.41796611    -0.07700
C1236       C  0.07250574  0.86978927  0.43623035    -0.05000
C1237       C  0.07961626  0.84424497  0.42641062     0.00900
C1238       C  0.06610426  0.82699471  0.39742634    -0.07600
C1239       C  0.07252486  0.79872377  0.38602393     0.62800
H1240       H  0.03598839  0.82389042  0.35662108     0.13500
H1241       H  0.08340969  0.88292955  0.45828508     0.13500
C1242       C  0.04606938  0.90732307  0.42929281     0.63000
F1243       F  0.05301840  0.78205510  0.35966149    -0.22100
F1244       F  0.06379891  0.77418269  0.40933838    -0.19500
F1245       F  0.10698369  0.81285303  0.37834965    -0.19100
F1246       F  0.01149063  0.89323626  0.43592134    -0.19200
F1247       F  0.05575310  0.93254796  0.40654052    -0.19500
F1248       F  0.06470117  0.92325262  0.45624817    -0.22200
C1249       C  0.29890391  0.92865236  0.44214411    -0.05000
C1250       C  0.26637702  0.92003725  0.43036080     0.00900
C1251       C  0.26371126  0.93173403  0.40019786    -0.07700
C1252       C  0.29396965  0.95095861  0.38242616    -0.05000
C1253       C  0.32643913  0.95896354  0.39396476     0.00900
C1254       C  0.32908403  0.94740972  0.42425710    -0.07600
C1255       C  0.36241607  0.95330244  0.43890107     0.62800
H1256       H  0.30062242  0.91943270  0.46523989     0.13500
H1257       H  0.29252386  0.95977070  0.35910252     0.13500
C1258       C  0.22931928  0.92470388  0.38709720     0.63000
F1259       F  0.36940654  0.97334686  0.46561620    -0.22100
F1260       F  0.39048997  0.96946678  0.41907187    -0.19500
F1261       F  0.35844678  0.92173064  0.44737515    -0.19100
F1262       F  0.21238031  0.93323074  0.40921661    -0.19200
F1263       F  0.20897326  0.89007184  0.37931442    -0.19500
F1264       F  0.23518556  0.45505135  0.36901845    -0.22200
C1265       C  0.04358643  0.70734186  0.88579812    -0.05000
C1266       C  0.03893194  0.67459560  0.89249065     0.00900
C1267       C  0.05368546  0.67003082  0.92020711    -0.07700
C1268       C  0.07293279  0.69868464  0.93994645    -0.05000
C1269       C  0.07759287  0.73141725  0.93332148     0.00900
C1270       C  0.06200149  0.73578435  0.90615496    -0.07600
C1271       C  0.06537996  0.77036636  0.89828452     0.62800
H1272       H  0.03279019  0.71049967  0.86421597     0.13500
H1273       H  0.08481647  0.69548146  0.96085648     0.13500
C1274       C  0.05033593  0.63604304  0.93048575     0.63000
F1275       F  0.05031248  0.76949878  0.86968401    -0.22100
F1276       F  0.09989827  0.79594447  0.89682846    -0.19500
F1277       F  0.04908668  0.77881210  0.92112480    -0.19100
F1278       F  0.03266528  0.60928683  0.90944540    -0.19200
F1279       F  0.03312026  0.62620575  0.95890355    -0.19500
F1280       F  0.08295138  0.64069764  0.93445117    -0.22200
C1281       C  0.12295868  0.91997140  0.93525063    -0.05000
C1282       C  0.15425161  0.92065133  0.93103558     0.00900
C1283       C  0.17776025  0.94260357  0.90763943    -0.07700
C1284       C  0.16789656  0.96152542  0.88821412    -0.05000
C1285       C  0.13606308  0.95978307  0.89196688     0.00900
C1286       C  0.11344777  0.93929914  0.91634127    -0.07600
C1287       C  0.07944427  0.93782708  0.92273125     0.62800
H1288       H  0.10556936  0.90367856  0.95356496     0.13500
H1289       H  0.18493448  0.97786332  0.86974422     0.13500
C1290       C  0.21265181  0.94573665  0.90260470     0.63000
F1291       F  0.05621764  0.92029378  0.89880809    -0.22100
F1292       F  0.07981936  0.46751676  0.92143510    -0.19500
F1293       F  0.06166157  0.42013940  0.95084908    -0.19100
F1294       F  0.20829346  0.91339098  0.89704794    -0.19200
F1295       F  0.23311070  0.96021974  0.92892542    -0.19500
F1296       F  0.23006572  0.96667803  0.87719992    -0.22200
C1297       C  0.29707652  0.87716270  0.56520768    -0.05000
C1298       C  0.26545601  0.84622828  0.56975285    -0.02500
C1299       C  0.26269216  0.82291412  0.59367592    -0.07700
C1300       C  0.29195924  0.83172806  0.61226330    -0.05000
C1301       C  0.32325702  0.86292722  0.60787810     0.00900
C1302       C  0.32607333  0.88615028  0.58399003    -0.07600
C1303       C  0.35931732  0.92052410  0.57843376     0.62800
H1304       H  0.29876416  0.89473352  0.54693613     0.13500
H1305       H  0.29051908  0.81461115  0.63086603     0.13500
C1306       C  0.22894326  0.78961336  0.60044050     0.63000
F1307       F  0.36470139  0.94327192  0.60262591    -0.22100
F1308       F  0.35808634  0.93592778  0.55069689    -0.19500
F1309       F  0.38713577  0.91553415  0.57670693    -0.19100
F1310       F  0.22074856  0.76682243  0.57564023    -0.19200
F1311       F  0.20267545  0.79666659  0.60470239    -0.19500
F1312       F  0.23101379  0.77344769  0.62734502    -0.22200
C1313       C  0.28992083  0.82700243  0.88890705    -0.05000
C1314       C  0.32083505  0.85911720  0.89108026     0.00900
C1315       C  0.32385783  0.88338933  0.91403124    -0.07700
C1316       C  0.29501961  0.87549556  0.93244466    -0.05000
C1317       C  0.26405090  0.84344315  0.93047441     0.00900
C1318       C  0.26150414  0.81830889  0.90864581    -0.07600
C1319       C  0.22891518  0.78300377  0.90534203     0.62800
H1320       H  0.28806629  0.80884247  0.87128306     0.13500
H1321       H  0.29701631  0.89465277  0.94916511     0.13500
C1322       C  0.35653305  0.91810623  0.91989330     0.63000
F1323       F  0.23102286  0.76427679  0.88047274    -0.22100
F1324       F  0.20072121  0.78685564  0.90014140    -0.19500
F1325       F  0.22375985  0.76399258  0.93242719    -0.19100
F1326       F  0.38589212  0.91945614  0.90843195    -0.19200
F1327       F  0.36138407  0.92443949  0.95185796    -0.19500
F1328       F  0.35306355  0.94402265  0.90605231    -0.22200
C1329       C  0.16290798  0.95551054  0.61476805    -0.05000
C1330       C  0.13463690  0.95944205  0.60743919     0.00900
C1331       C  0.11390771  0.94187814  0.58089304    -0.07700
C1332       C  0.12315507  0.92221857  0.56208958    -0.05000
C1333       C  0.15176154  0.91882951  0.56898217     0.00900
C1334       C  0.17227988  0.93591624  0.59571368    -0.07600
C1335       C  0.20311856  0.93259486  0.60473269     0.62800
H1336       H  0.17725385  0.96741476  0.63604921     0.13500
H1337       H  0.10734690  0.90880643  0.54177534     0.13500
C1338       C  0.08147740  0.94197711  0.57117446     0.63000
F1339       F  0.21739437  0.94860529  0.63312935    -0.22100
F1340       F  0.22846881  0.94796539  0.58202768    -0.19500
F1341       F  0.19308557  0.89800135  0.60743689    -0.19100
F1342       F  0.08164091  0.47086446  0.58478820    -0.19200
F1343       F  0.05408099  0.90819683  0.56974644    -0.19500
F1344       F  0.08644474  0.95663928  0.54166634    -0.22200
C1345       C  0.04225832  0.66831494  0.57637312    -0.05000
C1346       C  0.03653015  0.67505920  0.60723277     0.00900
C1347       C  0.05102098  0.70982543  0.61755501    -0.07700
C1348       C  0.07071985  0.73670265  0.59628798    -0.05000
C1349       C  0.07700539  0.72991634  0.56569914     0.00900
C1350       C  0.06285043  0.69525817  0.55545866    -0.07600
C1351       C  0.07054261  0.68682625  0.52303548     0.62800
H1352       H  0.03180371  0.64167863  0.56924311     0.13500
H1353       H  0.08249478  0.76338921  0.60405328     0.13500
C1354       C  0.55832361  0.72434612  0.65921404     0.63000
F1355       F  0.05149009  0.65166960  0.51665938    -0.22100
F1356       F  0.10515791  0.69723759  0.52116573    -0.19500
F1357       F  0.06276119  0.70385440  0.50036174    -0.19100
F1358       F  0.57738875  0.71371504  0.67625145    -0.19200
F1359       F  0.52495378  0.70774002  0.67065525    -0.19500
F1360       F  0.57260264  0.75956361  0.66406980    -0.22200
C1361       C  0.42624102  0.62346186  0.56493227    -0.05000
C1362       C  0.42445364  0.65354409  0.56948399     0.00900
C1363       C  0.44412431  0.67681858  0.59395109    -0.07700
C1364       C  0.46392677  0.66840954  0.61362694    -0.05000
C1365       C  0.46506029  0.63802392  0.60948971     0.00900
C1366       C  0.44638181  0.61528906  0.58439238    -0.07600
C1367       C  0.94159092  0.57887710  0.57375089     0.62800
H1368       H  0.41116268  0.60596323  0.54611831     0.13500
H1369       H  0.47825120  0.68529972  0.63289086     0.13500
C1370       C  0.44341494  0.70976812  0.60009474     0.63000
F1371       F  0.92423961  0.55455264  0.59692540    -0.22100
F1372       F  0.97521499  0.58589276  0.57213672    -0.19500
F1373       F  0.92576144  0.56450136  0.54531593    -0.19100
F1374       F  0.40966830  0.70197469  0.60392985    -0.19200
F1375       F  0.45825712  0.73225273  0.57510074    -0.19500
F1376       F  0.46162985  0.72667823  0.62694221    -0.22200
C1377       C  0.37579499  0.57473099  0.43719648    -0.05000
C1378       C  0.34596606  0.57609140  0.43077036     0.00900
C1379       C  0.32470548  0.55723776  0.40507671    -0.07700
C1380       C  0.33447263  0.53794414  0.38618006    -0.05000
C1381       C  0.36419292  0.53628530  0.39261827     0.00900
C1382       C  0.38577313  0.55563748  0.41818912    -0.07600
C1383       C  0.41950016  0.55687177  0.42515442     0.62800
H1384       H  0.39186799  0.58979118  0.45676808     0.13500
H1385       H  0.31934783  0.52466104  0.36562710     0.13500
C1386       C  0.29158076  0.55707190  0.39804700     0.63000
F1387       F  0.43611806  0.57708311  0.45121038    -0.22100
F1388       F  0.44173673  0.57070694  0.39994286    -0.19500
F1389       F  0.41311624  0.52394713  0.43094705    -0.19100
F1390       F  0.29914600  0.58988573  0.38944016    -0.19200
F1391       F  0.27084878  0.54676047  0.42448481    -0.19500
F1392       F  0.27307267  0.53452493  0.37384339    -0.22200
C1393       C  0.20355851  0.57934967  0.56451541    -0.05000
C1394       C  0.23412146  0.57869393  0.56922065     0.00900
C1395       C  0.23498883  0.55692400  0.59286479    -0.07700
C1396       C  0.20526537  0.53724976  0.61135342    -0.05000
C1397       C  0.17467196  0.53777652  0.60635994     0.00900
C1398       C  0.17363367  0.55901831  0.58224640    -0.07600
C1399       C  0.14227888  0.56175739  0.57380931     0.62800
H1400       H  0.20288187  0.59597545  0.54641845     0.13500
H1401       H  0.20582617  0.52158395  0.63037554     0.13500
C1402       C  0.26722231  0.55515196  0.59934589     0.63000
F1403       F  0.13510952  0.55475032  0.54216010    -0.22100
F1404       F  0.14963997  0.59515705  0.57963791    -0.19500
F1405       F  0.11284011  0.53922772  0.59018496    -0.19100
F1406       F  0.29504382  0.58807371  0.60473039    -0.19200
F1407       F  0.27415984  0.54057638  0.57386809    -0.19500
F1408       F  0.26337559  0.53510447  0.62543898    -0.22200
C1409       C  0.42398786  0.79598697  0.43627110    -0.05000
C1410       C  0.42309699  0.76497548  0.42982761     0.00900
C1411       C  0.44211760  0.76320612  0.40429662    -0.07700
C1412       C  0.46104906  0.79278378  0.38552089    -0.05000
C1413       C  0.46250759  0.82416003  0.39217306     0.00900
C1414       C  0.44317613  0.82574411  0.41784361    -0.07600
C1415       C  0.44087059  0.85722458  0.42697393     0.62800
H1416       H  0.40873102  0.79673359  0.45559633     0.13500
H1417       H  0.47432158  0.79137613  0.36494201     0.13500
C1418       C  0.44289212  0.73047860  0.39735387     0.63000
F1419       F  0.45153572  0.86599850  0.45781430    -0.22100
F1420       F  0.40685740  0.84902990  0.42462804    -0.19500
F1421       F  0.46070636  0.88593757  0.40857029    -0.19100
F1422       F  0.41028918  0.70410903  0.38884812    -0.19200
F1423       F  0.45361630  0.72066712  0.42381724    -0.19500
F1424       F  0.96796139  0.73366204  0.37543229    -0.22200
C1425       C  0.17330780  0.62657904  0.42334646    -0.05000
C1426       C  0.17891340  0.63751658  0.39201774     0.00900
C1427       C  0.21306291  0.65625144  0.38015665    -0.07700
C1428       C  0.24068629  0.66411112  0.40062000    -0.05000
C1429       C  0.23517543  0.65306090  0.43203328     0.00900
C1430       C  0.20080444  0.63358421  0.44364195    -0.07600
C1431       C  0.19279757  0.61848954  0.47661637     0.62800
H1432       H  0.14692906  0.61148204  0.43151672     0.13500
H1433       H  0.26698722  0.67841176  0.39201321     0.13500
C1434       C  0.22037416  0.66697940  0.34589126     0.63000
F1435       F  0.15767771  0.59663381  0.48126220    -0.22100
F1436       F  0.20438591  0.64483447  0.49854193    -0.19500
F1437       F  0.20871930  0.59947125  0.48165980    -0.19100
F1438       F  0.20561350  0.68626173  0.33767019    -0.19200
F1439       F  0.20687719  0.63789334  0.32704560    -0.19500
F1440       F  0.25546143  0.68681803  0.33990697    -0.22200
C1441       C  0.36817079  0.82837600  0.57701374    -0.05000
C1442       C  0.35944381  0.82230581  0.60895677     0.00900
C1443       C  0.34402256  0.78799231  0.62082787    -0.07700
C1444       C  0.33953779  0.76129709  0.60050221    -0.05000
C1445       C  0.34930758  0.76762779  0.56889546     0.00900
C1446       C  0.36316114  0.80145125  0.55664551    -0.07600
C1447       C  0.37248111  0.80883111  0.52218055     0.62800
H1448       H  0.37981306  0.85461476  0.56831182     0.13500
H1449       H  0.32852507  0.73516705  0.60951719     0.13500
C1450       C  0.33185323  0.77780982  0.65447031     0.63000
F1451       F  0.38525887  0.84331038  0.51484497    -0.22100
F1452       F  0.34339552  0.78889953  0.50401485    -0.19500
F1453       F  0.39745329  0.80080264  0.51471934    -0.19100
F1454       F  0.29769151  0.75123578  0.65435540    -0.19200
F1455       F  0.33383628  0.80452954  0.67217883    -0.19500
F1456       F  0.35163436  0.76619983  0.66884387    -0.22200
C1457       C  0.23569433  0.57285055  0.89945810    -0.05000
C1458       C  0.23018525  0.57181975  0.93189917     0.00900
C1459       C  0.19688395  0.54915721  0.94427899    -0.07700
C1460       C  0.16934567  0.53084424  0.92325909    -0.05000
C1461       C  0.17438869  0.53337781  0.89062736     0.00900
C1462       C  0.20835425  0.55346250  0.87843966    -0.07600
C1463       C  0.21593865  0.55492502  0.84350326     0.62800
H1464       H  0.26150788  0.59007489  0.89057695     0.13500
H1465       H  0.14353284  0.51451226  0.93248058     0.13500
C1466       C  0.18887300  0.54285377  0.97909793     0.63000
F1467       F  0.25098349  0.56973224  0.83788554    -0.22100
F1468       F  0.20475084  0.57454069  0.82822101    -0.19500
F1469       F  0.19944991  0.52194947  0.83082130    -0.19100
F1470       F  0.16481030  0.55198300  0.98704249    -0.19200
F1471       F  0.21760987  0.56114987  0.99804830    -0.19500
F1472       F  0.17495737  0.50796458  0.98528587    -0.22200
C1473       C  0.23730612  0.66046463  0.10191834    -0.05000
C1474       C  0.23144687  0.65633485  0.06926148     0.00900
C1475       C  0.19771223  0.64571149  0.05770119    -0.07700
C1476       C  0.17115526  0.63812629  0.07940255    -0.05000
C1477       C  0.17699620  0.64126582  0.11187745     0.00900
C1478       C  0.21077547  0.65329090  0.12346281    -0.07600
C1479       C  0.21899837  0.65867655  0.15841708     0.62800
H1480       H  0.26301296  0.66897062  0.11067901     0.13500
H1481       H  0.14524129  0.62913839  0.07114923     0.13500
C1482       C  0.18907012  0.64153929  0.02285850     0.63000
F1483       F  0.20428783  0.62710934  0.17357508    -0.22100
F1484       F  0.20634140  0.67824327  0.17134732    -0.19500
F1485       F  0.25422859  0.67582748  0.16400394    -0.19100
F1486       F  0.19688618  0.61822539  0.00971794    -0.19200
F1487       F  0.20773535  0.67324445  0.00800587    -0.19500
F1488       F  0.15437101  0.62926108  0.01736983    -0.22200
C1489       C  0.41804990  0.62030897  0.93309580    -0.05000
C1490       C  0.41968536  0.65225547  0.92954663     0.00900
C1491       C  0.44318233  0.67633922  0.90729979    -0.07700
C1492       C  0.46350472  0.66699355  0.88925311    -0.05000
C1493       C  0.46242653  0.63539408  0.89352657     0.00900
C1494       C  0.43900389  0.61144455  0.91584727    -0.07600
C1495       C  0.94349130  0.58318383  0.92667521     0.62800
H1496       H  0.40006698  0.60172286  0.94991807     0.13500
H1497       H  0.47972923  0.68400156  0.87081116     0.13500
C1498       C  0.44612555  0.71115137  0.90162339     0.63000
F1499       F  0.90989977  0.55551249  0.92536289    -0.22100
F1500       F  0.95529688  0.58685858  0.95724690    -0.19500
F1501       F  0.96365909  0.57534616  0.90813317    -0.19100
F1502       F  0.45879053  0.73147984  0.92827205    -0.19200
F1503       F  0.41403419  0.70633663  0.89418549    -0.19500
F1504       F  0.46839309  0.72907056  0.87713896    -0.22200
C1505       C  0.34681246  0.55492988  0.11907288    -0.05000
C1506       C  0.36701383  0.54281070  0.10545068     0.00900
C1507       C  0.37806156  0.55145172  0.07388245    -0.07700
C1508       C  0.36618652  0.56979443  0.05645144    -0.05000
C1509       C  0.34584583  0.58186705  0.06996237     0.00900
C1510       C  0.33616149  0.57465063  0.10201179    -0.07600
C1511       C  0.31454911  0.58726249  0.11827454     0.62800
H1512       H  0.34019481  0.54955242  0.14365430     0.13500
H1513       H  0.37442203  0.57626254  0.03221999     0.13500
C1514       C  0.40354054  0.54392069  0.05762694     0.63000
F1515       F  0.30410252  0.57294253  0.14788617    -0.22100
F1516       F  0.28520406  0.57815733  0.10076948    -0.19500
F1517       F  0.33366609  0.62285869  0.12176502    -0.19100
F1518       F  0.41549826  0.52735675  0.07665062    -0.19200
F1519       F  0.43178083  0.57482326  0.04785698    -0.19500
F1520       F  0.38802421  0.52356022  0.03142955    -0.22200
C1521       C  0.45781247  0.79513604  0.10914067    -0.05000
C1522       C  0.45930804  0.82661211  0.10301001     0.00900
C1523       C  0.43920883  0.82835980  0.07807739    -0.07700
C1524       C  0.41933361  0.79867232  0.05964347    -0.05000
C1525       C  0.41820718  0.76748269  0.06570376     0.00900
C1526       C  0.43755387  0.76541279  0.09083349    -0.07600
C1527       C  0.43650811  0.73185775  0.09833347     0.62800
H1528       H  0.47173945  0.79365120  0.12920678     0.13500
H1529       H  0.40359412  0.79956593  0.04082348     0.13500
C1530       C  0.43661720  0.85993661  0.07003103     0.63000
F1531       F  0.46000786  0.73634696  0.12154581    -0.22100
F1532       F  0.44438025  0.71956862  0.07172421    -0.19500
F1533       F  0.40385162  0.70740043  0.10863421    -0.19100
F1534       F  0.45791932  0.88878159  0.08788287    -0.19200
F1535       F  0.40290048  0.85199701  0.07443411    -0.19500
F1536       F  0.44521827  0.86843960  0.03880004    -0.22200
C1537       C  0.36187423  0.82318237  0.91917963    -0.05000
C1538       C  0.35527292  0.81744305  0.88691593     0.00900
C1539       C  0.33987726  0.78333915  0.87458710    -0.07700
C1540       C  0.33217456  0.75597506  0.89535025    -0.05000
C1541       C  0.34015661  0.76206301  0.92734793     0.00900
C1542       C  0.35483377  0.79593625  0.93969613    -0.07600
C1543       C  0.36352961  0.80314855  0.97433124     0.62800
H1544       H  0.37357926  0.84944838  0.92798340     0.13500
H1545       H  0.32117938  0.72976482  0.88659487     0.13500
C1546       C  0.33205685  0.77582756  0.83975754     0.63000
F1547       F  0.37596062  0.83754027  0.98183649    -0.22100
F1548       F  0.38859178  0.79535709  0.98216432    -0.19500
F1549       F  0.33424395  0.78296287  0.99209209    -0.19100
F1550       F  0.36244582  0.79076329  0.82282660    -0.19200
F1551       F  0.31195812  0.78896907  0.82932608    -0.19500
F1552       F  0.31440129  0.74061948  0.83354532    -0.22200
Zn1553     Zn  0.83411415  0.16849404  0.04541732     1.49700
Zn1554     Zn  0.87847192  0.20624551  0.98453620     1.49400
Zn1555     Zn  0.82904866  0.12403036  0.98542239     1.49100
Zn1556     Zn  0.79594115  0.17200811  0.98443869     1.49500
O1557       O  0.83443616  0.16773463  0.99974409    -1.83400
O1558       O  0.87264462  0.21400123  0.06145609    -0.74000
O1559       O  0.90538493  0.18964362  0.95876965    -0.73800
O1560       O  0.83479616  0.09807440  0.02149298    -0.73300
O1561       O  0.90719872  0.23719145  0.02021143    -0.74000
O1562       O  0.84142579  0.13117994  0.06289810    -0.73600
O1563       O  0.86738218  0.13327595  0.95595490    -0.74200
O1564       O  0.76433163  0.13116364  0.95730998    -0.73600
O1565       O  0.86971526  0.23735024  0.95752253    -0.74300
O1566       O  0.78351968  0.09446227  0.96235033    -0.73700
O1567       O  0.81286196  0.21571201  0.95910570    -0.74200
O1568       O  0.76599228  0.17094586  0.02010481    -0.74100
O1569       O  0.78900912  0.16160398  0.06207008    -0.73900
C1570       C  0.90032656  0.23792718  0.04911682     0.77900
C1571       C  0.89640427  0.15949191  0.94858304     0.78400
C1572       C  0.84059713  0.10491235  0.05066483     0.77300
C1573       C  0.76159706  0.10199426  0.95189820     0.77700
C1574       C  0.84304908  0.23872946  0.95028558     0.78800
C1575       C  0.76491128  0.16435341  0.04924953     0.77900
Zn1576     Zn  0.83208825  0.16197089  0.45434943     1.49700
Zn1577     Zn  0.87767585  0.20327627  0.51390247     1.49400
Zn1578     Zn  0.79614099  0.16958012  0.51513503     1.49100
Zn1579     Zn  0.82796289  0.12032469  0.51559833     1.49500
O1580       O  0.83370767  0.16384925  0.49997469    -1.83400
O1581       O  0.86984697  0.20648433  0.43602214    -0.74000
O1582       O  0.86951039  0.23439351  0.54239368    -0.73800
O1583       O  0.76488275  0.16629498  0.48001863    -0.73300
O1584       O  0.90410776  0.23355290  0.47683473    -0.74000
O1585       O  0.78666603  0.15414126  0.43862239    -0.73600
O1586       O  0.81292027  0.21375300  0.53942053    -0.74200
O1587       O  0.78400081  0.09347014  0.54147455    -0.73600
O1588       O  0.90602025  0.18698983  0.53768533    -0.74300
O1589       O  0.76575977  0.13093929  0.54368044    -0.73700
O1590       O  0.86845207  0.13057788  0.54266454    -0.74200
O1591       O  0.83013529  0.09119175  0.48020594    -0.74100
O1592       O  0.83831177  0.12364122  0.43802434    -0.73900
C1593       C  0.89696127  0.23198154  0.44767852     0.77900
C1594       C  0.84291369  0.23619633  0.54910205     0.78400
C1595       C  0.76308074  0.15771269  0.45133327     0.77300
C1596       C  0.76274215  0.10216727  0.55130045     0.77700
C1597       C  0.89785090  0.15720790  0.54831742     0.78800
C1598       C  0.83617615  0.09711206  0.45094168     0.77900
N1599       N  0.90411398  0.44689541  0.74867874    -0.35900
N1600       N  0.92838211  0.99943842  0.79837773    -0.56400
N1601       N  0.95425609  0.04996051  0.74931190    -0.35800
N1602       N  0.92781516  0.99744680  0.70105730    -0.56400
C1603       C  0.88709971  0.42820218  0.77422976     0.27700
C1604       C  0.88713494  0.42775328  0.72320311     0.27700
C1605       C  0.95658759  0.06932362  0.77450268     0.27700
C1606       C  0.95621670  0.06824604  0.72348255     0.27700
C1607       C  0.92183186  0.47093459  0.81522399     0.36300
C1608       C  0.94917432  0.02768809  0.81573109     0.36400
C1609       C  0.92190147  0.47009839  0.68232332     0.36300
C1610       C  0.94864304  0.02528119  0.68332763     0.36400
C1611       C  0.85841868  0.39721212  0.76496181    -0.21100
C1612       C  0.85844363  0.39693505  0.73260898    -0.21100
C1613       C  0.95900255  0.09988045  0.76465346    -0.21100
C1614       C  0.95876934  0.09920400  0.73227546    -0.21100
C1615       C  0.93654114  0.48127295  0.84478047    -0.22200
C1616       C  0.95439522  0.01794033  0.84513690    -0.22200
C1617       C  0.93653398  0.48031786  0.65278830    -0.22200
C1618       C  0.95379381  0.01481950  0.65423720    -0.22200
C1619       C  0.89980709  0.43646828  0.80520134    -0.17500
C1620       C  0.89968318  0.43575157  0.69219160    -0.17500
C1621       C  0.96106611  0.05973221  0.69281304    -0.17500
C1622       C  0.96147988  0.06186031  0.80554679    -0.17500
H1623       H  0.84043842  0.37625886  0.77995270     0.15400
H1624       H  0.84046926  0.37576760  0.71774407     0.15400
H1625       H  0.96250797  0.12119255  0.77923404     0.15400
H1626       H  0.96211771  0.11993959  0.71698165     0.15400
H1627       H  0.93397548  0.46487120  0.86443030     0.13700
H1628       H  0.96904236  0.03466200  0.86444954     0.13700
H1629       H  0.93375879  0.46387451  0.63307992     0.13700
H1630       H  0.96829272  0.03110467  0.63466024     0.13700
H1631       H  0.92896523  0.46855109  0.74873350     0.26900
H1632       H  0.95745586  0.02855851  0.74965353     0.26900
N1633       N  0.59528690  0.04482325  0.75144762    -0.35900
N1634       N  0.57005446  0.07002185  0.80074428    -0.56400
N1635       N  0.54420926  0.09578344  0.75234463    -0.35800
N1636       N  0.57062074  0.07171156  0.70298106    -0.56400
C1637       C  0.61187812  0.04241474  0.77695527     0.27700
C1638       C  0.61213171  0.04323676  0.72580213     0.27700
C1639       C  0.54215981  0.11213715  0.77818130     0.27700
C1640       C  0.54234092  0.11296842  0.72708476     0.27700
C1641       C  0.57739649  0.04948021  0.81812000     0.36300
C1642       C  0.54967937  0.07711920  0.81857056     0.36400
C1643       C  0.57828620  0.05183022  0.68491096     0.36300
C1644       C  0.55046974  0.07947926  0.68547252     0.36400
C1645       C  0.64013876  0.04026681  0.76743639    -0.21100
C1646       C  0.64031584  0.04079436  0.73507135    -0.21100
C1647       C  0.53998011  0.14064749  0.76930709    -0.21100
C1648       C  0.54007689  0.14116673  0.73693271    -0.21100
C1649       C  0.56236227  0.04416290  0.84752509    -0.22200
C1650       C  0.54472898  0.06176208  0.84781077    -0.22200
C1651       C  0.56374990  0.04772231  0.65536202    -0.22200
C1652       C  0.54604190  0.06528877  0.65572072    -0.22200
C1653       C  0.59920625  0.03742375  0.80802891    -0.17500
C1654       C  0.59972007  0.03908769  0.69468022    -0.17500
C1655       C  0.53789360  0.10084928  0.69585084    -0.17500
C1656       C  0.53742847  0.09897632  0.80901750    -0.17500
H1657       H  0.65770070  0.03685033  0.78219377     0.15400
H1658       H  0.65805783  0.03787957  0.72006077     0.15400
H1659       H  0.53683784  0.15813912  0.78454812     0.15400
H1660       H  0.53702285  0.15914144  0.72232163     0.15400
H1661       H  0.56442632  0.02972547  0.86688006     0.13700
H1662       H  0.53049687  0.06356131  0.86742665     0.13700
H1663       H  0.56612838  0.03405819  0.63552003     0.13700
H1664       H  0.53209450  0.06784398  0.63620885     0.13700
H1665       H  0.57072140  0.04167405  0.75144314     0.26900
H1666       H  0.54102572  0.07114361  0.75194286     0.26900
N1667       N  0.94695592  0.40138966  0.74790378    -0.35900
N1668       N  0.50004245  0.42754656  0.79768556    -0.56400
N1669       N  0.55144286  0.45329122  0.74935405    -0.35800
N1670       N  0.50023190  0.42800476  0.70032535    -0.56400
C1671       C  0.92794540  0.38424540  0.77331464     0.27700
C1672       C  0.92837531  0.38429233  0.72225279     0.27700
C1673       C  0.57017024  0.45530420  0.77488503     0.27700
C1674       C  0.57009911  0.45507237  0.72390113     0.27700
C1675       C  0.96988644  0.41950091  0.81435316     0.36300
C1676       C  0.52801140  0.44785897  0.81553582     0.36400
C1677       C  0.97095313  0.41958279  0.68168653     0.36300
C1678       C  0.52838956  0.44838721  0.68293992     0.36400
C1679       C  0.89736253  0.35530913  0.76378198    -0.21100
C1680       C  0.89763386  0.35534282  0.73140505    -0.21100
C1681       C  0.60067000  0.45734563  0.76562595    -0.21100
C1682       C  0.60061154  0.45717463  0.73326331    -0.21100
C1683       C  0.97991134  0.43442462  0.84386233    -0.22200
C1684       C  0.51781919  0.45227580  0.84502065    -0.22200
C1685       C  0.98142539  0.43486613  0.65239780    -0.22200
C1686       C  0.51877825  0.45379915  0.65352432    -0.22200
C1687       C  0.93571921  0.39709700  0.80428753    -0.17500
C1688       C  0.93654206  0.39730637  0.69137112    -0.17500
C1689       C  0.56234347  0.46016462  0.69305881    -0.17500
C1690       C  0.56228831  0.46027717  0.80573003    -0.17500
H1691       H  0.87632365  0.33715964  0.77856584     0.15400
H1692       H  0.87683544  0.33722490  0.71634582     0.15400
H1693       H  0.62156837  0.46055788  0.78058009     0.15400
H1694       H  0.62146759  0.46028152  0.71835279     0.15400
H1695       H  0.96339803  0.43177075  0.86340376     0.13700
H1696       H  0.53425347  0.46621026  0.86475545     0.13700
H1697       H  0.96516666  0.43263220  0.63274284     0.13700
H1698       H  0.53552774  0.46813162  0.63414327     0.13700
H1699       H  0.96833142  0.42642078  0.74798832     0.26900
H1700       H  0.53034494  0.45686505  0.74927703     0.26900
C1701       C  0.98169600  0.12561718  0.62869718     0.03000
C1702       C  0.51776481  0.14809533  0.63324856     0.03000
C1703       C  0.53580433  0.13788589  0.65321900    -0.17500
C1704       C  0.51805452  0.10997302  0.67385261     0.03000
C1705       C  0.98123125  0.08836211  0.67046290     0.03000
C1706       C  0.96362227  0.09789453  0.64948137    -0.17500
H1707       H  0.93562112  0.08399431  0.64977311     0.05000
H1708       H  0.56379605  0.15173945  0.65276273     0.05000
C1709       C  0.62652458  0.47993519  0.62795304     0.03000
C1710       C  0.64449983  0.01809006  0.63015227     0.03000
C1711       C  0.63560130  0.03648951  0.65112675    -0.17500
C1712       C  0.60826521  0.01898800  0.67229647     0.03000
C1713       C  0.59114999  0.48010706  0.67108843     0.03000
C1714       C  0.60005725  0.46214062  0.64985498    -0.17500
H1715       H  0.58606734  0.43405643  0.65023581     0.05000
H1716       H  0.64996924  0.06456991  0.65086533     0.05000
C1717       C  0.85301246  0.37071708  0.86942993     0.03000
C1718       C  0.86886922  0.35052318  0.86763640     0.03000
C1719       C  0.89598991  0.35965686  0.84644595    -0.17500
C1720       C  0.90685485  0.38797589  0.82635738     0.03000
C1721       C  0.89020968  0.40744601  0.82733079     0.03000
C1722       C  0.86314025  0.39828619  0.84844981    -0.17500
H1723       H  0.84962008  0.41248347  0.84822410     0.05000
H1724       H  0.90867489  0.34464086  0.84557829     0.05000
C1725       C  0.86893447  0.35094537  0.62809406     0.03000
C1726       C  0.85200308  0.37017984  0.62765127     0.03000
C1727       C  0.86223809  0.39751443  0.64904536    -0.17500
C1728       C  0.88985129  0.40687217  0.66973103     0.03000
C1729       C  0.90765728  0.38851237  0.66922069     0.03000
C1730       C  0.89700019  0.36071556  0.64844826    -0.17500
H1731       H  0.91020338  0.34618230  0.64852149     0.05000
H1732       H  0.84839360  0.41138093  0.64989864     0.05000
C1733       C  0.62882544  0.47966921  0.86900304     0.03000
C1734       C  0.64535212  0.01620407  0.87118443     0.03000
C1735       C  0.63566043  0.03464305  0.85099597    -0.17500
C1736       C  0.60778631  0.01722975  0.83015791     0.03000
C1737       C  0.59126891  0.48004179  0.82798175     0.03000
C1738       C  0.60143480  0.46202530  0.84776282    -0.17500
H1739       H  0.58805812  0.43401082  0.84638704     0.05000
H1740       H  0.65037281  0.06270904  0.85099223     0.05000
C1741       C  0.98161183  0.12639827  0.87109372     0.03000
C1742       C  0.51735313  0.14319750  0.87449226     0.03000
C1743       C  0.53538886  0.13428424  0.85324234    -0.17500
C1744       C  0.51759568  0.10743592  0.83153119     0.03000
C1745       C  0.98151063  0.09096661  0.82763992     0.03000
C1746       C  0.96379269  0.10064838  0.84833287    -0.17500
H1747       H  0.93583378  0.08753170  0.84715533     0.05000
H1748       H  0.56339912  0.14826545  0.85366593     0.05000
Zn1749     Zn  0.70166375  0.37428270  0.51322355     1.49700
Zn1750     Zn  0.66791778  0.29275164  0.51391570     1.49400
Zn1751     Zn  0.61904011  0.32562460  0.51244771     1.49100
Zn1752     Zn  0.66159066  0.32936053  0.45215902     1.49500
O1753       O  0.66260729  0.33061746  0.49800564    -1.83400
O1754       O  0.73338084  0.36592818  0.54058453    -0.74000
O1755       O  0.62869155  0.26310289  0.54260587    -0.73800
O1756       O  0.62861987  0.36481647  0.54094114    -0.73300
O1757       O  0.71263279  0.30941632  0.53799718    -0.74000
O1758       O  0.68541030  0.40141194  0.53895870    -0.73600
O1759       O  0.59119560  0.28129442  0.53739964    -0.74200
O1760       O  0.62314669  0.33551934  0.43470460    -0.73600
O1761       O  0.66455756  0.26104540  0.47895236    -0.74300
O1762       O  0.59147317  0.32992224  0.47672223    -0.73700
O1763       O  0.65622489  0.28440416  0.43619963    -0.74200
O1764       O  0.70619767  0.36812194  0.43537571    -0.74100
O1765       O  0.73160288  0.40216122  0.47679788    -0.73900
C1766       C  0.73538457  0.33942798  0.54756958     0.77900
C1767       C  0.59970366  0.26032993  0.54852736     0.78400
C1768       C  0.65538426  0.39323109  0.54864347     0.77300
C1769       C  0.59725326  0.33498435  0.44735484     0.77700
C1770       C  0.65889438  0.26052008  0.44962324     0.78800
C1771       C  0.73096525  0.39535161  0.44765468     0.77900
Zn1772     Zn  0.70697532  0.37746492  0.98542093     1.49700
Zn1773     Zn  0.62510706  0.32828052  0.98687660     1.49400
Zn1774     Zn  0.67306702  0.29526996  0.98670782     1.49100
Zn1775     Zn  0.66978593  0.33471854  0.04705449     1.49500
O1776       O  0.66868808  0.33396432  0.00140134    -1.83400
O1777       O  0.69051139  0.40432072  0.95978593    -0.74000
O1778       O  0.59632937  0.28283775  0.96371877    -0.73800
O1779       O  0.71730730  0.31152885  0.96264067    -0.73300
O1780       O  0.63407108  0.36708237  0.95764174    -0.74000
O1781       O  0.73731119  0.36785571  0.95808009    -0.73600
O1782       O  0.63327451  0.26419674  0.95898568    -0.74200
O1783       O  0.66306508  0.29004068  0.06419668    -0.73600
O1784       O  0.59839817  0.33234963  0.02298911    -0.74300
O1785       O  0.66949762  0.26431869  0.02227855    -0.73700
O1786       O  0.63187483  0.34122420  0.06454527    -0.74200
O1787       O  0.71551593  0.37366722  0.06242699    -0.74100
O1788       O  0.73811072  0.40701450  0.02056964    -0.73900
C1789       C  0.66049162  0.39586409  0.94992738     0.77900
C1790       C  0.60407724  0.26108489  0.95324548     0.78400
C1791       C  0.73943398  0.34123161  0.95203891     0.77300
C1792       C  0.66419991  0.26499584  0.05151953     0.77700
C1793       C  0.60497393  0.33876630  0.05214415     0.78800
C1794       C  0.73955699  0.40103066  0.04954723     0.77900
N1795       N  0.55277927  0.09572202  0.25118572    -0.35900
N1796       N  0.00268186  0.06833010  0.30043178    -0.56400
N1797       N  0.95120843  0.04524055  0.25217124    -0.35800
N1798       N  0.00271025  0.07241742  0.20305366    -0.56400
C1799       C  0.57152649  0.11203810  0.27698117     0.27700
C1800       C  0.57197281  0.11317036  0.22596824     0.27700
C1801       C  0.93264783  0.04265381  0.27804518     0.27700
C1802       C  0.93262700  0.04462257  0.22699931     0.27700
C1803       C  0.52877658  0.07654658  0.31737282     0.36300
C1804       C  0.97468173  0.04828174  0.31821898     0.36400
C1805       C  0.52941089  0.08005913  0.18472211     0.36300
C1806       C  0.97437015  0.05313955  0.18527454     0.36400
C1807       C  0.60257424  0.14082896  0.26815400    -0.21100
C1808       C  0.60285972  0.14153230  0.23577709    -0.21100
C1809       C  0.90236245  0.04136756  0.26930643    -0.21100
C1810       C  0.90233372  0.04259294  0.23695321    -0.21100
C1811       C  0.51841153  0.06087696  0.34652356    -0.22200
C1812       C  0.98467449  0.04301164  0.34749740    -0.22200
C1813       C  0.51892277  0.06581725  0.15503929    -0.22200
C1814       C  0.98395197  0.04930158  0.15530093    -0.22200
C1815       C  0.56312604  0.09846818  0.30763574    -0.17500
C1816       C  0.56383073  0.10114378  0.19479570    -0.17500
C1817       C  0.94028476  0.04088436  0.19563280    -0.17500
C1818       C  0.94056925  0.03694300  0.30870353    -0.17500
H1819       H  0.62355103  0.15833649  0.28341140     0.15400
H1820       H  0.62405175  0.15971221  0.22113286     0.15400
H1821       H  0.88169606  0.03810411  0.28456950     0.15400
H1822       H  0.88160129  0.04040330  0.22236678     0.15400
H1823       H  0.53469835  0.06235294  0.36587847     0.13700
H1824       H  0.96820243  0.02914706  0.36718214     0.13700
H1825       H  0.53512859  0.06807454  0.13536154     0.13700
H1826       H  0.96715362  0.03619036  0.13553615     0.13700
H1827       H  0.53101987  0.07094185  0.25076833     0.26900
H1828       H  0.97223858  0.04157558  0.25146894     0.26900
N1829       N  0.95649900  0.40434745  0.24676849    -0.35900
N1830       N  0.93197008  0.43249041  0.19928423    -0.56400
N1831       N  0.90548637  0.45560013  0.24946375    -0.35800
N1832       N  0.92869120  0.42617855  0.29693685    -0.56400
C1833       C  0.95870378  0.38875630  0.22039840     0.27700
C1834       C  0.95792308  0.38624238  0.27154125     0.27700
C1835       C  0.88980796  0.45947708  0.22400828     0.27700
C1836       C  0.88774472  0.45576623  0.27501382     0.27700
C1837       C  0.95170182  0.42502407  0.18085529     0.36300
C1838       C  0.92481102  0.45356559  0.18250533     0.36400
C1839       C  0.94875489  0.41801290  0.31416251     0.36300
C1840       C  0.92046541  0.44521923  0.31564807     0.36400
C1841       C  0.96054835  0.35984811  0.22847017    -0.21100
C1842       C  0.96007812  0.35827625  0.26082860    -0.21100
C1843       C  0.86121625  0.46114265  0.23339077    -0.21100
C1844       C  0.85990008  0.45877030  0.26567409    -0.21100
C1845       C  0.95638475  0.44068167  0.15179020    -0.22200
C1846       C  0.93934930  0.45889675  0.15286081    -0.22200
C1847       C  0.95265170  0.43123418  0.34427302    -0.22200
C1848       C  0.93456262  0.44839359  0.34525709    -0.22200
C1849       C  0.96371227  0.40271181  0.18977515    -0.17500
C1850       C  0.96167736  0.39707397  0.30321850    -0.17500
C1851       C  0.89908902  0.45821730  0.30633894    -0.17500
C1852       C  0.90329835  0.46581109  0.19320853    -0.17500
H1853       H  0.96361433  0.34268944  0.21271066     0.15400
H1854       H  0.96266763  0.33966034  0.27489348     0.15400
H1855       H  0.84418129  0.46546215  0.21866068     0.15400
H1856       H  0.84165860  0.46088211  0.28066617     0.15400
H1857       H  0.96994062  0.43858175  0.13174109     0.13700
H1858       H  0.93720593  0.47361837  0.13380471     0.13700
H1859       H  0.96666558  0.42847696  0.36357312     0.13700
H1860       H  0.93176982  0.46130339  0.36550197     0.13700
H1861       H  0.95968454  0.42897891  0.24792459     0.26900
H1862       H  0.93000057  0.45859335  0.24972357     0.26900
C1863       C  0.85205294  0.47580116  0.37136390     0.03000
C1864       C  0.87680212  0.01725384  0.37480753     0.03000
C1865       C  0.90326317  0.03509925  0.35276273    -0.17500
C1866       C  0.91186498  0.01714690  0.33117802     0.03000
C1867       C  0.88976594  0.47712527  0.32944485     0.03000
C1868       C  0.86173024  0.45852584  0.34978475    -0.17500
H1869       H  0.84728031  0.43046776  0.34877489     0.05000
H1870       H  0.91691407  0.06315453  0.35202351     0.05000
N1871       N  0.54392169  0.44891793  0.24794126    -0.35900
N1872       N  0.57060136  0.99975666  0.19993146    -0.56400
N1873       N  0.59625065  0.05060160  0.24931900    -0.35800
N1874       N  0.57158667  0.99839545  0.29732480    -0.56400
C1875       C  0.54327132  0.43120201  0.22206654     0.27700
C1876       C  0.54084890  0.42918797  0.27306677     0.27700
C1877       C  0.61315559  0.06983936  0.22394377     0.27700
C1878       C  0.61331595  0.06919108  0.27498967     0.27700
C1879       C  0.55292842  0.47495935  0.18211325     0.36300
C1880       C  0.57814216  0.02792202  0.18269846     0.36400
C1881       C  0.54637637  0.46984081  0.31475435     0.36300
C1882       C  0.57919200  0.02599001  0.31551466     0.36400
C1883       C  0.54076470  0.40027451  0.23079044    -0.21100
C1884       C  0.53927283  0.39901697  0.26313768    -0.21100
C1885       C  0.64192269  0.10057693  0.23352658    -0.21100
C1886       C  0.64201596  0.10016832  0.26589975    -0.21100
C1887       C  0.54958703  0.48610598  0.15268167    -0.22200
C1888       C  0.56306087  0.01809102  0.15325008    -0.22200
C1889       C  0.54047966  0.47879284  0.34425978    -0.22200
C1890       C  0.56485808  0.01520496  0.34508808    -0.22200
C1891       C  0.53985305  0.44029317  0.19116975    -0.17500
C1892       C  0.53479428  0.43594862  0.30402592    -0.17500
C1893       C  0.60069421  0.06058727  0.30593527    -0.17500
C1894       C  0.60025620  0.06215013  0.19297843    -0.17500
H1895       H  0.53843365  0.37999274  0.21540553     0.15400
H1896       H  0.53558929  0.37758120  0.27760235     0.15400
H1897       H  0.65979229  0.12186524  0.21879339     0.15400
H1898       H  0.66000351  0.12104141  0.28100614     0.15400
H1899       H  0.53618413  0.47027520  0.13246839     0.13700
H1900       H  0.56530158  0.03479149  0.13396917     0.13700
H1901       H  0.52571366  0.46153871  0.36321009     0.13700
H1902       H  0.56732209  0.03127910  0.36500934     0.13700
H1903       H  0.54054108  0.47019097  0.24814733     0.26900
H1904       H  0.57139178  0.02898655  0.24922089     0.26900
C1905       C  0.85601878  0.48600301  0.13092102     0.03000
C1906       C  0.87457843  0.02343416  0.13178289     0.03000
C1907       C  0.90260667  0.04055277  0.15253559    -0.17500
C1908       C  0.91102793  0.02187686  0.17342114     0.03000
C1909       C  0.89414125  0.48594070  0.17157077     0.03000
C1910       C  0.86712349  0.46818696  0.15013942    -0.17500
H1911       H  0.85426004  0.44019931  0.14881939     0.05000
H1912       H  0.91762990  0.06860522  0.15285567     0.05000
C1913       C  0.64759683  0.12578062  0.37061649     0.03000
C1914       C  0.62844278  0.14271813  0.37264303     0.03000
C1915       C  0.60067054  0.13310947  0.35206986    -0.17500
C1916       C  0.59165386  0.10686685  0.32986221     0.03000
C1917       C  0.60993171  0.08900590  0.32878070     0.03000
C1918       C  0.63733414  0.09826621  0.34952400    -0.17500
H1919       H  0.65097850  0.08418335  0.34898825     0.05000
H1920       H  0.58637337  0.14653262  0.35296062     0.05000
C1921       C  0.64738698  0.12947589  0.12990286     0.03000
C1922       C  0.62873466  0.14709109  0.12983199     0.03000
C1923       C  0.60199610  0.13776997  0.15151690    -0.17500
C1924       C  0.59241993  0.11029488  0.17230796     0.03000
C1925       C  0.60952442  0.09129013  0.17108815     0.03000
C1926       C  0.63624947  0.10056530  0.14947074    -0.17500
H1927       H  0.64879740  0.08545911  0.14828336     0.05000
H1928       H  0.58884390  0.15232160  0.15256493     0.05000
C1929       C  0.97998043  0.34975988  0.36768992     0.03000
C1930       C  0.51437301  0.36959725  0.36803527     0.03000
C1931       C  0.53240470  0.39738179  0.34720355    -0.17500
C1932       C  0.51471284  0.40620756  0.32548975     0.03000
C1933       C  0.98089319  0.38695636  0.32527170     0.03000
C1934       C  0.96257176  0.35909849  0.34591073    -0.17500
H1935       H  0.93456233  0.34492966  0.34541008     0.05000
H1936       H  0.56040086  0.41228821  0.34793539     0.05000
C1937       C  0.98528416  0.35891887  0.12464446     0.03000
C1938       C  0.52109288  0.37585205  0.12593895     0.03000
C1939       C  0.53861526  0.40258423  0.14783898    -0.17500
C1940       C  0.52043760  0.41216596  0.16804105     0.03000
C1941       C  0.98399308  0.39478726  0.16707177     0.03000
C1942       C  0.96681110  0.36848783  0.14477273    -0.17500
H1943       H  0.93883103  0.35475701  0.14360981     0.05000
H1944       H  0.56656070  0.41581724  0.14934838     0.05000
C1945       C  0.62662420  0.20348601  0.06438156    -0.05000
C1946       C  0.65699782  0.23492880  0.07080530     0.00900
C1947       C  0.67877215  0.23720880  0.09574650    -0.07700
C1948       C  0.66877219  0.20773288  0.11427751    -0.05000
C1949       C  0.63782547  0.17656073  0.10857024     0.00900
C1950       C  0.61625020  0.17408476  0.08317132    -0.07600
C1951       C  0.58224178  0.14094932  0.07613925     0.62800
H1952       H  0.61043538  0.20256195  0.04510704     0.13500
H1953       H  0.68478933  0.20891377  0.13375303     0.13500
C1954       C  0.71263576  0.27040500  0.10225675     0.63000
F1955       F  0.56791159  0.14317108  0.04807520    -0.22100
F1956       F  0.55871315  0.13466565  0.09973838    -0.19500
F1957       F  0.58724684  0.11311641  0.07398733    -0.19100
F1958       F  0.70629096  0.29619778  0.11133218    -0.19200
F1959       F  0.73268617  0.28070008  0.07538844    -0.19500
F1960       F  0.73126092  0.26617418  0.12593532    -0.22200
C1961       C  0.57497174  0.37104590  0.05954407    -0.05000
C1962       C  0.58210287  0.34617730  0.07125220     0.00900
C1963       C  0.56858542  0.33060302  0.10078773    -0.07700
C1964       C  0.54807691  0.34058717  0.11748852    -0.05000
C1965       C  0.54163425  0.36605171  0.10598089     0.00900
C1966       C  0.55611865  0.38234943  0.07690728    -0.07600
C1967       C  0.07620658  0.42780984  0.08093487     0.62800
H1968       H  0.58583042  0.38316925  0.03710626     0.13500
H1969       H  0.53746078  0.32912548  0.14013363     0.13500
C1970       C  0.57528328  0.30333272  0.11441784     0.63000
F1971       F  0.08276399  0.43711859  0.04960850    -0.22100
F1972       F  0.10538003  0.44962557  0.09825532    -0.19500
F1973       F  0.04962886  0.43275381  0.09018303    -0.19100
F1974       F  0.60989322  0.31809776  0.12186375    -0.19200
F1975       F  0.56614886  0.27704119  0.09279339    -0.19500
F1976       F  0.55636957  0.28878527  0.14152039    -0.22200
C1977       C  0.76452505  0.42511366  0.10171010    -0.05000
C1978       C  0.76969491  0.42572793  0.06907728     0.00900
C1979       C  0.80345435  0.44788224  0.05677787    -0.07700
C1980       C  0.83073996  0.46710895  0.07790336    -0.05000
C1981       C  0.82551650  0.46561052  0.11039020     0.00900
C1982       C  0.79177495  0.44479730  0.12266878    -0.07600
C1983       C  0.78429171  0.44323853  0.15767479     0.62800
H1984       H  0.73874233  0.40856327  0.11088242     0.13500
H1985       H  0.85671230  0.48328316  0.06921779     0.13500
C1986       C  0.81135103  0.45100414  0.02182015     0.63000
F1987       F  0.74915352  0.42528122  0.16376205    -0.22100
F1988       F  0.79794764  0.47630421  0.16966275    -0.19500
F1989       F  0.79858332  0.42661769  0.17333422    -0.19100
F1990       F  0.79382433  0.46471524  0.00668603    -0.19200
F1991       F  0.80155420  0.41878060  0.00949305    -0.19500
F1992       F  0.84623173  0.47261619  0.01572581    -0.22200
C1993       C  0.66812414  0.20311080  0.38983690    -0.05000
C1994       C  0.63757824  0.17139586  0.39513926     0.00900
C1995       C  0.61531705  0.16862392  0.41995407    -0.07700
C1996       C  0.62329035  0.19854400  0.43707172    -0.05000
C1997       C  0.65334463  0.23037874  0.43114997     0.00900
C1998       C  0.67679172  0.23267345  0.40789383    -0.07600
C1999       C  0.71107141  0.26587530  0.40275733     0.62800
H2000       H  0.68488169  0.20479401  0.37097459     0.13500
H2001       H  0.60567006  0.19717842  0.45511821     0.13500
C2002       C  0.58243054  0.13516840  0.42835982     0.63000
F2003       F  0.73044803  0.26215750  0.37951613    -0.22100
F2004       F  0.73003391  0.27501528  0.43031278    -0.19500
F2005       F  0.70555328  0.29228241  0.39396134    -0.19100
F2006       F  0.57792413  0.13276862  0.46062126    -0.19200
F2007       F  0.58309840  0.10616145  0.41857009    -0.19500
F2008       F  0.55452263  0.13503752  0.41464189    -0.22200
C2009       C  0.53591464  0.33085796  0.38352590    -0.05000
C2010       C  0.53432160  0.36066888  0.39015660     0.00900
C2011       C  0.55290614  0.38155446  0.41638658    -0.07700
C2012       C  0.57272493  0.37187426  0.43462831    -0.05000
C2013       C  0.57440129  0.34220195  0.42778371     0.00900
C2014       C  0.55518766  0.32090194  0.40223822    -0.07600
C2015       C  0.55443196  0.28739761  0.39531346     0.62800
H2016       H  0.52231105  0.31562864  0.36308438     0.13500
H2017       H  0.58748592  0.38800158  0.45434048     0.13500
C2018       C  0.55329030  0.41425667  0.42634556     0.63000
F2019       F  0.53109806  0.26856880  0.37172426    -0.22100
F2020       F  0.54477368  0.26707686  0.42204774    -0.19500
F2021       F  0.58679697  0.29451245  0.38593158    -0.19100
F2022       F  0.54372519  0.41145366  0.45756527    -0.19200
F2023       F  0.53122415  0.42072359  0.40913268    -0.19500
F2024       F  0.58641754  0.44234516  0.42316983    -0.22200
C2025       C  0.79270236  0.42089449  0.43775098    -0.05000
C2026       C  0.76142900  0.41772648  0.42832973     0.00900
C2027       C  0.75970433  0.43315327  0.39998450    -0.07700
C2028       C  0.78997805  0.45163174  0.38198743    -0.05000
C2029       C  0.82146828  0.45500499  0.39153587     0.00900
C2030       C  0.82261152  0.43827231  0.41939267    -0.07600
C2031       C  0.85359385  0.43638603  0.43073408     0.62800
H2032       H  0.79337634  0.40813858  0.45916089     0.13500
H2033       H  0.78920403  0.46322804  0.35995701     0.13500
C2034       C  0.72636449  0.43072839  0.38923482     0.63000
F2035       F  0.86338244  0.45160025  0.46009142    -0.22100
F2036       F  0.88174987  0.45235148  0.41097425    -0.19500
F2037       F  0.84427343  0.40197497  0.43333716    -0.19100
F2038       F  0.71366775  0.44228318  0.41288649    -0.19200
F2039       F  0.70207213  0.39678164  0.38198978    -0.19500
F2040       F  0.73701870  0.95252305  0.36550550    -0.22200
C2041       C  0.53901380  0.20350568  0.89106045    -0.05000
C2042       C  0.53731246  0.17190719  0.89693236     0.00900
C2043       C  0.55639015  0.16945132  0.92232563    -0.07700
C2044       C  0.57681491  0.19905507  0.94059005    -0.05000
C2045       C  0.57888165  0.23078837  0.93453328     0.00900
C2046       C  0.55930873  0.23310275  0.90958294    -0.07600
C2047       C  0.56112881  0.26691222  0.90143561     0.62800
H2048       H  0.52505705  0.20507962  0.87104804     0.13500
H2049       H  0.59179869  0.19742777  0.95978540     0.13500
C2050       C  0.55697873  0.13699588  0.93132881     0.63000
F2051       F  0.54234928  0.26394198  0.87463995    -0.22100
F2052       F  0.59511892  0.29245186  0.89620942    -0.19500
F2053       F  0.54776423  0.27681689  0.92581138    -0.19100
F2054       F  0.54647172  0.12864288  0.96220968    -0.19200
F2055       F  0.59040734  0.14349241  0.92870732    -0.19500
F2056       F  0.53582989  0.10851782  0.91306302    -0.22200
C2057       C  0.62386727  0.41938451  0.93404233    -0.05000
C2058       C  0.65505398  0.41979812  0.92988805     0.00900
C2059       C  0.67854576  0.44141871  0.90633161    -0.07700
C2060       C  0.66884262  0.46033286  0.88675789    -0.05000
C2061       C  0.63726982  0.45908181  0.89059090     0.00900
C2062       C  0.61462783  0.43893442  0.91508597    -0.07600
C2063       C  0.58106574  0.43833461  0.92169169     0.62800
H2064       H  0.60649598  0.40334685  0.95247685     0.13500
H2065       H  0.68587969  0.47638762  0.86817467     0.13500
C2066       C  0.71334930  0.44433565  0.90136484     0.63000
F2067       F  0.55783338  0.42204301  0.89749183    -0.22100
F2068       F  0.58221022  0.96956028  0.92627279    -0.19500
F2069       F  0.56088544  0.91858725  0.95064124    -0.19100
F2070       F  0.70888525  0.41183855  0.89651272    -0.19200
F2071       F  0.73403350  0.45944617  0.92744862    -0.19500
F2072       F  0.73056749  0.46461809  0.87556771    -0.22200
C2073       C  0.79712238  0.37527452  0.56217058    -0.05000
C2074       C  0.76530871  0.34448295  0.56681618    -0.02500
C2075       C  0.76275995  0.32102382  0.59055705    -0.07700
C2076       C  0.79171926  0.33037807  0.60983031    -0.05000
C2077       C  0.82301605  0.36165034  0.60568575     0.00900
C2078       C  0.82619139  0.38417352  0.58098835    -0.07600
C2079       C  0.85988612  0.41780189  0.57471205     0.62800
H2080       H  0.79895057  0.39280099  0.54379203     0.13500
H2081       H  0.79008050  0.31346667  0.62867758     0.13500
C2082       C  0.72965815  0.28670900  0.59620914     0.63000
F2083       F  0.86522044  0.44187422  0.59759359    -0.22100
F2084       F  0.85944601  0.43169613  0.54581987    -0.19500
F2085       F  0.88736095  0.41218995  0.57477670    -0.19100
F2086       F  0.72249630  0.26540253  0.57037566    -0.19200
F2087       F  0.70250984  0.29223089  0.60135571    -0.19500
F2088       F  0.73223806  0.26952633  0.62211567    -0.22200
C2089       C  0.79401010  0.33079843  0.88950036    -0.05000
C2090       C  0.82498631  0.36268961  0.89221727     0.00900
C2091       C  0.82872359  0.38604026  0.91638251    -0.07700
C2092       C  0.80023073  0.37739715  0.93572312    -0.05000
C2093       C  0.76881037  0.34588657  0.93255034     0.00900
C2094       C  0.76600147  0.32140028  0.90985635    -0.07600
C2095       C  0.73366249  0.28590230  0.90652073     0.62800
H2096       H  0.79185804  0.31338078  0.87094302     0.13500
H2097       H  0.80222937  0.39562084  0.95342896     0.13500
C2098       C  0.86248547  0.41989190  0.92202024     0.63000
F2099       F  0.73612157  0.26723101  0.88181044    -0.22100
F2100       F  0.70526723  0.28935841  0.90113571    -0.19500
F2101       F  0.72863935  0.26699168  0.93366439    -0.19100
F2102       F  0.88980039  0.41405299  0.92276417    -0.19200
F2103       F  0.86219405  0.43491551  0.95034166    -0.19500
F2104       F  0.86795615  0.44327069  0.89845846    -0.22200
C2105       C  0.65774737  0.44875263  0.61712475    -0.05000
C2106       C  0.63499249  0.45926281  0.60632406     0.00900
C2107       C  0.61866453  0.44741359  0.57673299    -0.07700
C2108       C  0.62686104  0.42658230  0.55840192    -0.05000
C2109       C  0.65053368  0.41720647  0.56868734     0.00900
C2110       C  0.66607811  0.42802619  0.59860793    -0.07600
C2111       C  0.69009846  0.41646514  0.61130435     0.62800
H2112       H  0.66880506  0.45682837  0.64036844     0.13500
H2113       H  0.61490949  0.41749594  0.53558155     0.13500
C2114       C  0.59305869  0.45690476  0.56414281     0.63000
F2115       F  0.69989500  0.42718499  0.64199993    -0.22100
F2116       F  0.71963952  0.43024957  0.59313994    -0.19500
F2117       F  0.67367792  0.38068727  0.61060361    -0.19100
F2118       F  0.57621316  0.96646033  0.58984327    -0.19200
F2119       F  0.57590071  0.43766955  0.53778234    -0.19500
F2120       F  0.61057012  0.49137724  0.55581202    -0.22200
C2121       C  0.53816264  0.17075050  0.57982602    -0.05000
C2122       C  0.53757181  0.17781314  0.61182541     0.00900
C2123       C  0.55579919  0.21254712  0.62271085    -0.07700
C2124       C  0.57421386  0.23921385  0.60079530    -0.05000
C2125       C  0.57572437  0.23188026  0.56905505     0.00900
C2126       C  0.55743967  0.19730523  0.55819531    -0.07600
C2127       C  0.55911222  0.18863297  0.52402567     0.62800
H2128       H  0.52437950  0.14408965  0.57208636     0.13500
H2129       H  0.58907982  0.26592029  0.60852435     0.13500
C2130       C  0.05706330  0.21697876  0.65786285     0.63000
F2131       F  0.53707140  0.15379886  0.51772840    -0.22100
F2132       F  0.59239270  0.19684324  0.51681654    -0.19500
F2133       F  0.54984618  0.20743434  0.50485150    -0.19100
F2134       F  0.07553838  0.20469762  0.67350412    -0.19200
F2135       F  0.02373028  0.20060769  0.66944725    -0.19500
F2136       F  0.07231478  0.25197896  0.66439181    -0.22200
C2137       C  0.92391604  0.12212852  0.56175418    -0.05000
C2138       C  0.92264453  0.15231276  0.56732921     0.00900
C2139       C  0.94224727  0.17465081  0.59231850    -0.07700
C2140       C  0.96139337  0.16507677  0.61162636    -0.05000
C2141       C  0.96174681  0.13437877  0.60658540     0.00900
C2142       C  0.94315396  0.11265734  0.58094199    -0.07600
C2143       C  0.44029113  0.08009645  0.58055140     0.62800
H2144       H  0.90885292  0.10540115  0.54250406     0.13500
H2145       H  0.97584741  0.18126947  0.63125895     0.13500
C2146       C  0.94217009  0.20777176  0.59931010     0.63000
F2147       F  0.42132094  0.05691216  0.60404388    -0.22100
F2148       F  0.47327212  0.08520644  0.58039672    -0.19500
F2149       F  0.42490953  0.06519512  0.55211726    -0.19100
F2150       F  0.90860979  0.20052280  0.60320626    -0.19200
F2151       F  0.95744795  0.23080333  0.57475431    -0.19500
F2152       F  0.96037074  0.22375109  0.62644251    -0.22200
C2153       C  0.87406494  0.07389714  0.44035832    -0.05000
C2154       C  0.84430600  0.07462805  0.43209023     0.00900
C2155       C  0.82530835  0.05664884  0.40506130    -0.07700
C2156       C  0.83724151  0.03873706  0.38686552    -0.05000
C2157       C  0.86665569  0.03736060  0.39541060     0.00900
C2158       C  0.88598839  0.05589986  0.42225662    -0.07600
C2159       C  0.91893541  0.05685633  0.43201210     0.62800
H2160       H  0.88836366  0.08829126  0.46094957     0.13500
H2161       H  0.82381238  0.02586091  0.36548871     0.13500
C2162       C  0.79208887  0.05546924  0.39607052     0.63000
F2163       F  0.93479207  0.07876762  0.45731868    -0.22100
F2164       F  0.94236318  0.06845946  0.40758340    -0.19500
F2165       F  0.91131367  0.02414422  0.44061407    -0.19100
F2166       F  0.79879439  0.08835587  0.38896349    -0.19200
F2167       F  0.76906811  0.04234678  0.42084862    -0.19500
F2168       F  0.77650741  0.03455358  0.37013417    -0.22200
C2169       C  0.70156544  0.07752984  0.56506070    -0.05000
C2170       C  0.73273929  0.07848594  0.57100548     0.00900
C2171       C  0.73464048  0.05916708  0.59642493    -0.07700
C2172       C  0.70484004  0.03920861  0.61469485    -0.05000
C2173       C  0.67357381  0.03787311  0.60825438     0.00900
C2174       C  0.67181520  0.05746268  0.58300864    -0.07600
C2175       C  0.63994464  0.05899384  0.57391516     0.62800
H2176       H  0.70035326  0.09284843  0.54598706     0.13500
H2177       H  0.70593419  0.02511847  0.63483764     0.13500
C2178       C  0.76819443  0.06100406  0.60537566     0.63000
F2179       F  0.63299284  0.05114324  0.54235209    -0.22100
F2180       F  0.64642319  0.09222994  0.57893776    -0.19500
F2181       F  0.61067781  0.03630211  0.59045336    -0.19100
F2182       F  0.79384670  0.09518084  0.60989268    -0.19200
F2183       F  0.77799883  0.04659959  0.58183389    -0.19500
F2184       F  0.76497575  0.04313462  0.63286469    -0.22200
C2185       C  0.92231806  0.29344034  0.43451599    -0.05000
C2186       C  0.91938554  0.26163631  0.42731344     0.00900
C2187       C  0.93608009  0.25866008  0.40039415    -0.07700
C2188       C  0.95569155  0.28822014  0.38167549    -0.05000
C2189       C  0.95912078  0.32031517  0.38915555     0.00900
C2190       C  0.94126562  0.32279657  0.41559502    -0.07600
C2191       C  0.94008173  0.35483519  0.42490973     0.62800
H2192       H  0.90861207  0.29509329  0.45475057     0.13500
H2193       H  0.96807194  0.28635801  0.36061141     0.13500
C2194       C  0.93380465  0.22470998  0.39192994     0.63000
F2195       F  0.95246479  0.36425855  0.45523349    -0.22100
F2196       F  0.90615542  0.34713951  0.42410617    -0.19500
F2197       F  0.95913759  0.38293734  0.40562039    -0.19100
F2198       F  0.90003297  0.19990266  0.38487379    -0.19200
F2199       F  0.94508597  0.21345728  0.41698547    -0.19500
F2200       F  0.44658105  0.22699806  0.35935534    -0.22200
C2201       C  0.67160275  0.12725941  0.42299497    -0.05000
C2202       C  0.67769801  0.13554262  0.39106611     0.00900
C2203       C  0.71180337  0.15228257  0.37916865    -0.07700
C2204       C  0.73897315  0.16026910  0.40009379    -0.05000
C2205       C  0.73301838  0.15139426  0.43204565     0.00900
C2206       C  0.69866261  0.13445027  0.44385288    -0.07600
C2207       C  0.69010204  0.12231437  0.47772280     0.62800
H2208       H  0.64517600  0.11431003  0.43127197     0.13500
H2209       H  0.76523579  0.17279701  0.39139338     0.13500
C2210       C  0.71959469  0.16070084  0.34445112     0.63000
F2211       F  0.65480104  0.10297077  0.48285325    -0.22100
F2212       F  0.70358795  0.15055561  0.49769268    -0.19500
F2213       F  0.70376953  0.10172273  0.48509302    -0.19100
F2214       F  0.70298111  0.17718629  0.33305648    -0.19200
F2215       F  0.70861820  0.13050780  0.32765672    -0.19500
F2216       F  0.75463366  0.18220913  0.33913652    -0.22200
C2217       C  0.86831950  0.32649620  0.57608702    -0.05000
C2218       C  0.85799046  0.32044852  0.60763051     0.00900
C2219       C  0.84014358  0.28603349  0.61935119    -0.07700
C2220       C  0.83517827  0.25899519  0.59930062    -0.05000
C2221       C  0.84711974  0.26537392  0.56826724     0.00900
C2222       C  0.86294253  0.29932966  0.55602686    -0.07600
C2223       C  0.87430630  0.30666500  0.52197568     0.62800
H2224       H  0.88176955  0.35287625  0.56756045     0.13500
H2225       H  0.82231575  0.23265826  0.60812414     0.13500
C2226       C  0.82582719  0.27618261  0.65248073     0.63000
F2227       F  0.88538887  0.34059291  0.51379508    -0.22100
F2228       F  0.84699554  0.28518674  0.50249848    -0.19500
F2229       F  0.90122178  0.30076311  0.51708184    -0.19100
F2230       F  0.79087266  0.25198485  0.65089949    -0.19200
F2231       F  0.82971205  0.30379973  0.67009022    -0.19500
F2232       F  0.84234658  0.26161691  0.66796452    -0.22200
C2233       C  0.73684043  0.08012403  0.89977103    -0.05000
C2234       C  0.73248191  0.07683784  0.93238875     0.00900
C2235       C  0.70001949  0.05184950  0.94498032    -0.07700
C2236       C  0.67247586  0.03229605  0.92418619    -0.05000
C2237       C  0.67657827  0.03588511  0.89144431     0.00900
C2238       C  0.70984485  0.05919107  0.87897171    -0.07600
C2239       C  0.71818752  0.06325544  0.84413411     0.62800
H2240       H  0.76182184  0.09930736  0.89041625     0.13500
H2241       H  0.64723800  0.01435691  0.93375981     0.13500
C2242       C  0.69255122  0.04481350  0.97981013     0.63000
F2243       F  0.75022624  0.06676050  0.83927599    -0.22100
F2244       F  0.71908787  0.09268688  0.83317757    -0.19500
F2245       F  0.69454399  0.03497707  0.82678948    -0.19100
F2246       F  0.66636043  0.05081423  0.98810641    -0.19200
F2247       F  0.72082116  0.06505829  0.99870981    -0.19500
F2248       F  0.68170578  0.01044543  0.98572034    -0.22200
C2249       C  0.73924903  0.16126015  0.10165070    -0.05000
C2250       C  0.73486046  0.15871312  0.06880986     0.00900
C2251       C  0.70171585  0.14884435  0.05616256    -0.07700
C2252       C  0.67400908  0.13924283  0.07699825    -0.05000
C2253       C  0.67829723  0.14056729  0.10965243     0.00900
C2254       C  0.71172732  0.15290109  0.12234439    -0.07600
C2255       C  0.71868016  0.15769614  0.15752406     0.62800
H2256       H  0.76460549  0.16956453  0.11121216     0.13500
H2257       H  0.64842037  0.13025026  0.06788418     0.13500
C2258       C  0.69490619  0.14790638  0.02105826     0.63000
F2259       F  0.70427814  0.12590095  0.17220558    -0.22100
F2260       F  0.70478201  0.17629225  0.17014289    -0.19500
F2261       F  0.75372241  0.17557979  0.16411489    -0.19100
F2262       F  0.70219324  0.12489624  0.00638124    -0.19200
F2263       F  0.71519775  0.18068569  0.00851822    -0.19500
F2264       F  0.66080012  0.13747355  0.01454475    -0.22200
C2265       C  0.91881927  0.12175582  0.93352524    -0.05000
C2266       C  0.92014279  0.15338355  0.92902796     0.00900
C2267       C  0.94201208  0.17628563  0.90533033    -0.07700
C2268       C  0.96228426  0.16671138  0.88757919    -0.05000
C2269       C  0.96125333  0.13524535  0.89257149     0.00900
C2270       C  0.93848718  0.11193019  0.91560547    -0.07600
C2271       C  0.45080547  0.08835308  0.93590599     0.62800
H2272       H  0.90174675  0.10400740  0.95133936     0.13500
H2273       H  0.97837831  0.18332123  0.86881384     0.13500
C2274       C  0.94274311  0.20966197  0.89757441     0.63000
F2275       F  0.41844903  0.06039947  0.94273904    -0.22100
F2276       F  0.47004426  0.09919667  0.96327045    -0.19500
F2277       F  0.46660198  0.07699685  0.91535609    -0.19100
F2278       F  0.95694616  0.23266830  0.92233523    -0.19200
F2279       F  0.90951471  0.20270968  0.89193830    -0.19500
F2280       F  0.96231755  0.22554133  0.87108142    -0.22200
C2281       C  0.83643872  0.04557916  0.11597767    -0.05000
C2282       C  0.86643337  0.04429319  0.11016898     0.00900
C2283       C  0.88733129  0.06197573  0.08381703    -0.07700
C2284       C  0.87728044  0.08059674  0.06425650    -0.05000
C2285       C  0.84776311  0.08254746  0.07070946     0.00900
C2286       C  0.82662858  0.06440264  0.09659656    -0.07600
C2287       C  0.79358435  0.06450880  0.10335074     0.62800
H2288       H  0.82098332  0.03215585  0.13623051     0.13500
H2289       H  0.89313067  0.09490176  0.04434767     0.13500
C2290       C  0.92053334  0.06213622  0.07673231     0.63000
F2291       F  0.77430938  0.04118924  0.12674846    -0.22100
F2292       F  0.77341060  0.05542048  0.07652449    -0.19500
F2293       F  0.80146865  0.09716503  0.11294290    -0.19100
F2294       F  0.91497535  0.02890942  0.07757503    -0.19200
F2295       F  0.94543992  0.08219337  0.09870469    -0.19500
F2296       F  0.93329596  0.07568267  0.04728131    -0.22200
C2297       C  0.95457961  0.29587850  0.11638746    -0.05000
C2298       C  0.96533115  0.32868000  0.10383492     0.00900
C2299       C  0.95519714  0.33167254  0.07311024    -0.07700
C2300       C  0.93470343  0.30126116  0.05572936    -0.05000
C2301       C  0.92399710  0.26838761  0.06825405     0.00900
C2302       C  0.93469002  0.26552393  0.09883332    -0.07600
C2303       C  0.92602821  0.23084828  0.11264667     0.62800
H2304       H  0.96189516  0.29429158  0.14030226     0.13500
H2305       H  0.92624520  0.30286779  0.03233247     0.13500
C2306       C  0.96578835  0.36663682  0.05880044     0.63000
F2307       F  0.94408598  0.23482077  0.14019312    -0.22100
F2308       F  0.93463799  0.21307238  0.09150220    -0.19500
F2309       F  0.89114498  0.21142135  0.11932279    -0.19100
F2310       F  0.00104152  0.38489021  0.05419455    -0.19200
F2311       F  0.95675697  0.38522487  0.07849639    -0.19500
F2312       F  0.95003146  0.36338526  0.03004157    -0.22200
C2313       C  0.87273336  0.32867921  0.91935239    -0.05000
C2314       C  0.85901385  0.32095169  0.88889624     0.00900
C2315       C  0.83828276  0.28587306  0.87927082    -0.07700
C2316       C  0.83239976  0.25972018  0.90071780    -0.05000
C2317       C  0.84744051  0.26755089  0.93061173     0.00900
C2318       C  0.86763116  0.30246870  0.94042007    -0.07600
C2319       C  0.88450964  0.31209129  0.97259327     0.62800
H2320       H  0.88880118  0.35559797  0.92603886     0.13500
H2321       H  0.81694435  0.23280606  0.89358535     0.13500
C2322       C  0.82213882  0.27419493  0.84693159     0.63000
F2323       F  0.89796478  0.34686599  0.97919634    -0.22100
F2324       F  0.91119737  0.30533389  0.97364989    -0.19500
F2325       F  0.86057628  0.29306678  0.99561202    -0.19100
F2326       F  0.83528451  0.25562501  0.83277485    -0.19200
F2327       F  0.82812717  0.30118453  0.82732259    -0.19500
F2328       F  0.78676576  0.25279119  0.85006931    -0.22200
Zn2329     Zn  0.83271143  0.66713996  0.04435986     1.49700
Zn2330     Zn  0.87716437  0.70580589  0.98318525     1.49400
Zn2331     Zn  0.82986161  0.62364246  0.98462544     1.49100
Zn2332     Zn  0.79465714  0.67059487  0.98326625     1.49500
O2333       O  0.83360262  0.66680522  0.99863783    -1.83400
O2334       O  0.87071739  0.71276532  0.06046218    -0.74000
O2335       O  0.90538876  0.69015533  0.95789229    -0.73800
O2336       O  0.83425226  0.59717103  0.02110492    -0.73300
O2337       O  0.90466122  0.73749350  0.01905286    -0.74000
O2338       O  0.83956738  0.62968925  0.06257341    -0.73600
O2339       O  0.86923314  0.63333906  0.95624264    -0.74200
O2340       O  0.76490870  0.62997054  0.95541002    -0.73600
O2341       O  0.86762840  0.73599741  0.95558384    -0.74300
O2342       O  0.78574802  0.59450920  0.96003159    -0.73700
O2343       O  0.81093248  0.71473356  0.95838954    -0.74200
O2344       O  0.76359570  0.66849931  0.01881754    -0.74100
O2345       O  0.78784705  0.66066571  0.06071439    -0.73900
C2346       C  0.89774645  0.73756377  0.04806171     0.77900
C2347       C  0.89762494  0.66007051  0.94842764     0.78400
C2348       C  0.83914585  0.60359117  0.05041463     0.77300
C2349       C  0.76354358  0.60152709  0.94940445     0.77700
C2350       C  0.84095607  0.73766846  0.94910168     0.78800
C2351       C  0.76334953  0.66286621  0.04813577     0.77900
Zn2352     Zn  0.83225206  0.66218240  0.45238557     1.49700
Zn2353     Zn  0.87747654  0.70284985  0.51269300     1.49400
Zn2354     Zn  0.79635356  0.67049090  0.51353797     1.49100
Zn2355     Zn  0.82730849  0.62047084  0.51360873     1.49500
O2356       O  0.83354192  0.66412289  0.49810246    -1.83400
O2357       O  0.87081334  0.70687068  0.43459823    -0.74000
O2358       O  0.86982448  0.73406550  0.54136663    -0.73800
O2359       O  0.76447526  0.66596763  0.47847552    -0.73300
O2360       O  0.90449809  0.73319202  0.47604263    -0.74000
O2361       O  0.78654893  0.65458045  0.43663993    -0.73600
O2362       O  0.81367100  0.71527796  0.53765233    -0.74200
O2363       O  0.78234908  0.59340950  0.53734281    -0.73600
O2364       O  0.90487841  0.68596342  0.53692795    -0.74300
O2365       O  0.76587053  0.63200999  0.54231259    -0.73700
O2366       O  0.86628952  0.62989742  0.54240854    -0.74200
O2367       O  0.83039801  0.59142572  0.47881862    -0.74100
O2368       O  0.83796389  0.62308652  0.43624781    -0.73900
C2369       C  0.89779393  0.73209069  0.44683139     0.77900
C2370       C  0.84378260  0.73690731  0.54780776     0.78400
C2371       C  0.76265164  0.65738964  0.44975617     0.77300
C2372       C  0.76176577  0.60240219  0.54827202     0.77700
C2373       C  0.89586092  0.65622321  0.54817566     0.78800
C2374       C  0.83593529  0.59669551  0.44946526     0.77900
N2375       N  0.90244444  0.94695053  0.75013737    -0.35900
N2376       N  0.92968659  0.49890613  0.79752767    -0.56400
N2377       N  0.95596342  0.55002644  0.74882731    -0.35800
N2378       N  0.92987371  0.49805314  0.70011368    -0.56400
C2379       C  0.88543725  0.92873498  0.77586523     0.27700
C2380       C  0.88529698  0.92755738  0.72486293     0.27700
C2381       C  0.95774371  0.56896669  0.77417805     0.27700
C2382       C  0.95764502  0.56843778  0.72315969     0.27700
C2383       C  0.92102545  0.97172233  0.81618830     0.36300
C2384       C  0.95005497  0.52705936  0.81524727     0.36400
C2385       C  0.92041358  0.96926423  0.68382463     0.36300
C2386       C  0.95022480  0.52608387  0.68243873     0.36400
C2387       C  0.85644243  0.89783293  0.76692254    -0.21100
C2388       C  0.85637253  0.89708297  0.73453999    -0.21100
C2389       C  0.95954158  0.59931748  0.76457552    -0.21100
C2390       C  0.95946476  0.59897873  0.73221315    -0.21100
C2391       C  0.93644490  0.98228500  0.84544542    -0.22200
C2392       C  0.95452322  0.51699579  0.84478066    -0.22200
C2393       C  0.93584330  0.97914903  0.65456837    -0.22200
C2394       C  0.95461102  0.51598981  0.65286845    -0.22200
C2395       C  0.89867357  0.93727378  0.80662548    -0.17500
C2396       C  0.89818591  0.93498866  0.69396056    -0.17500
C2397       C  0.96251816  0.56035901  0.69233277    -0.17500
C2398       C  0.96254084  0.56139141  0.80522265    -0.17500
H2399       H  0.83840996  0.87718137  0.78214119     0.15400
H2400       H  0.83825799  0.87579773  0.71986045     0.15400
H2401       H  0.96241240  0.62026553  0.77932553     0.15400
H2402       H  0.96230211  0.61964107  0.71709685     0.15400
H2403       H  0.93439650  0.96607420  0.86508526     0.13700
H2404       H  0.96859073  0.53355852  0.86439518     0.13700
H2405       H  0.93378900  0.96248342  0.63531488     0.13700
H2406       H  0.96853486  0.53251687  0.63321888     0.13700
H2407       H  0.92748940  0.96832553  0.74998215     0.26900
H2408       H  0.95952873  0.52885201  0.74899731     0.26900
N2409       N  0.59617285  0.54300463  0.75031180    -0.35900
N2410       N  0.57209916  0.57006801  0.79971765    -0.56400
N2411       N  0.54795208  0.59681169  0.75137967    -0.35800
N2412       N  0.57290595  0.57069610  0.70198000    -0.56400
C2413       C  0.61299842  0.54123941  0.77588278     0.27700
C2414       C  0.61283436  0.54084339  0.72477127     0.27700
C2415       C  0.54564302  0.61320723  0.77709783     0.27700
C2416       C  0.54682685  0.61424221  0.72599612     0.27700
C2417       C  0.57915255  0.54934373  0.81712341     0.36300
C2418       C  0.55224466  0.57784563  0.81763113     0.36400
C2419       C  0.57946436  0.54991382  0.68398473     0.36300
C2420       C  0.55345082  0.57940596  0.68451506     0.36400
C2421       C  0.64126730  0.53896322  0.76652759    -0.21100
C2422       C  0.64115463  0.53871078  0.73415231    -0.21100
C2423       C  0.54406330  0.64198277  0.76803728    -0.21100
C2424       C  0.54481712  0.64265063  0.73568169    -0.21100
C2425       C  0.56451650  0.54462616  0.84666649    -0.22200
C2426       C  0.54738501  0.56275725  0.84698239    -0.22200
C2427       C  0.56479562  0.54602062  0.65454483    -0.22200
C2428       C  0.54834445  0.56484658  0.65484629    -0.22200
C2429       C  0.60041011  0.53663539  0.80693110    -0.17500
C2430       C  0.60038664  0.53651881  0.69367633    -0.17500
C2431       C  0.54211733  0.60189027  0.69481758    -0.17500
C2432       C  0.54034237  0.59999256  0.80795638    -0.17500
H2433       H  0.65901332  0.53594890  0.78146399     0.15400
H2434       H  0.65885739  0.53561773  0.71924536     0.15400
H2435       H  0.54087079  0.65956086  0.78310996     0.15400
H2436       H  0.54215480  0.66078716  0.72096387     0.15400
H2437       H  0.56653636  0.53024565  0.86609451     0.13700
H2438       H  0.53360019  0.56513492  0.86669511     0.13700
H2439       H  0.56630524  0.53171079  0.63480971     0.13700
H2440       H  0.53482366  0.56801849  0.63531886     0.13700
H2441       H  0.57162643  0.53993494  0.75036118     0.26900
H2442       H  0.54431010  0.57198965  0.75100809     0.26900
N2443       N  0.94704526  0.90292248  0.75119615    -0.35900
N2444       N  0.49760005  0.92813181  0.79922616    -0.56400
N2445       N  0.54947094  0.95536618  0.75104188    -0.35800
N2446       N  0.49865469  0.93002018  0.70181458    -0.56400
C2447       C  0.92793708  0.88637483  0.77675105     0.27700
C2448       C  0.92816068  0.88570351  0.72572084     0.27700
C2449       C  0.56786878  0.95669855  0.77659263     0.27700
C2450       C  0.56833138  0.95744696  0.72562563     0.27700
C2451       C  0.97062817  0.92091964  0.81755632     0.36300
C2452       C  0.52543021  0.94818272  0.81732569     0.36400
C2453       C  0.97090301  0.91943003  0.68462138     0.36300
C2454       C  0.52683386  0.95101408  0.68464489     0.36400
C2455       C  0.89695338  0.85776146  0.76748037    -0.21100
C2456       C  0.89709077  0.85733446  0.73512579    -0.21100
C2457       C  0.59831912  0.95861684  0.76738565    -0.21100
C2458       C  0.59860348  0.95907316  0.73503793    -0.21100
C2459       C  0.98125491  0.93580532  0.84700626    -0.22200
C2460       C  0.51502875  0.95183685  0.84697919    -0.22200
C2461       C  0.98118357  0.93386602  0.65500198    -0.22200
C2462       C  0.51716864  0.95642593  0.65526857    -0.22200
C2463       C  0.93614737  0.89931935  0.80766794    -0.17500
C2464       C  0.93654477  0.89792084  0.69462944    -0.17500
C2465       C  0.56082917  0.96284242  0.69478275    -0.17500
C2466       C  0.55979301  0.96112265  0.80752153    -0.17500
H2467       H  0.87580697  0.84008568  0.78241691     0.15400
H2468       H  0.87603782  0.83930065  0.72021351     0.15400
H2469       H  0.61894158  0.96125751  0.78240971     0.15400
H2470       H  0.61949678  0.96215669  0.72019838     0.15400
H2471       H  0.96510420  0.93371845  0.86667137     0.13700
H2472       H  0.53132587  0.96543942  0.86688841     0.13700
H2473       H  0.96483808  0.93142123  0.63535112     0.13700
H2474       H  0.53390998  0.97104715  0.63599069     0.13700
H2475       H  0.96887984  0.92764580  0.75101153     0.26900
H2476       H  0.52841024  0.95901390  0.75104271     0.26900
C2477       C  0.98068777  0.62537822  0.62803471     0.03000
C2478       C  0.52197269  0.65096046  0.63418512     0.03000
C2479       C  0.54007446  0.64064319  0.65395221    -0.17500
C2480       C  0.52237933  0.61131152  0.67301073     0.03000
C2481       C  0.98190715  0.58918532  0.66998515     0.03000
C2482       C  0.96346316  0.59806323  0.64934779    -0.17500
H2483       H  0.93546929  0.58381736  0.65018678     0.05000
H2484       H  0.56807342  0.65542823  0.65445204     0.05000
C2485       C  0.62620158  0.98143910  0.63089029     0.03000
C2486       C  0.64473470  0.51662219  0.62780478     0.03000
C2487       C  0.63627154  0.53456909  0.64976931    -0.17500
C2488       C  0.60920889  0.51671410  0.67106868     0.03000
C2489       C  0.58986989  0.98236335  0.67276812     0.03000
C2490       C  0.59915071  0.96399598  0.65237392    -0.17500
H2491       H  0.58497814  0.93592136  0.65300617     0.05000
H2492       H  0.65065513  0.56264170  0.65007485     0.05000
C2493       C  0.85162408  0.87236083  0.87105365     0.03000
C2494       C  0.86826883  0.85287394  0.87047068     0.03000
C2495       C  0.89640318  0.86261183  0.85031324    -0.17500
C2496       C  0.90728055  0.89057937  0.82977430     0.03000
C2497       C  0.88932787  0.90878697  0.82915530     0.03000
C2498       C  0.86167048  0.89942509  0.84958347    -0.17500
H2499       H  0.84769968  0.91316380  0.84852770     0.05000
H2500       H  0.90950866  0.84798506  0.85024692     0.05000
C2501       C  0.87217331  0.85137175  0.62926406     0.03000
C2502       C  0.85462388  0.87006936  0.62811369     0.03000
C2503       C  0.86267264  0.89630577  0.65025055    -0.17500
C2504       C  0.88925614  0.90581588  0.67204920     0.03000
C2505       C  0.90798393  0.88841634  0.67206024     0.03000
C2506       C  0.89946217  0.86162121  0.65059509    -0.17500
H2507       H  0.91403641  0.84847542  0.65070630     0.05000
H2508       H  0.84818646  0.90955112  0.65046960     0.05000
C2509       C  0.62523776  0.97948936  0.87157389     0.03000
C2510       C  0.64785387  0.51637561  0.86899560     0.03000
C2511       C  0.63685154  0.53434857  0.84982219    -0.17500
C2512       C  0.60914709  0.51661161  0.82899430     0.03000
C2513       C  0.58870436  0.98063431  0.82990814     0.03000
C2514       C  0.59789476  0.96226306  0.85022334    -0.17500
H2515       H  0.58397905  0.93423364  0.84892520     0.05000
H2516       H  0.65015554  0.56236270  0.85079467     0.05000
C2517       C  0.98233484  0.62807340  0.86901388     0.03000
C2518       C  0.51998169  0.64486034  0.87295122     0.03000
C2519       C  0.53799392  0.63587561  0.85167740    -0.17500
C2520       C  0.52036421  0.60872888  0.83023213     0.03000
C2521       C  0.98239972  0.59074168  0.82730414     0.03000
C2522       C  0.96452128  0.60072346  0.84760294    -0.17500
H2523       H  0.93651540  0.58678277  0.84706457     0.05000
H2524       H  0.56601119  0.65010295  0.85186427     0.05000
Zn2525     Zn  0.70553021  0.87819541  0.51622505     1.49700
Zn2526     Zn  0.67169238  0.79605817  0.51549664     1.49400
Zn2527     Zn  0.62312916  0.82911024  0.51405583     1.49100
Zn2528     Zn  0.66764471  0.83341459  0.45440818     1.49500
O2529       O  0.66697473  0.83439236  0.50019904    -1.83400
O2530       O  0.73614646  0.86902762  0.54411354    -0.74000
O2531       O  0.63344013  0.76744021  0.54518031    -0.73800
O2532       O  0.63170140  0.86931968  0.54143238    -0.73300
O2533       O  0.71657965  0.81280544  0.53878166    -0.74000
O2534       O  0.68859268  0.90534399  0.54179558    -0.73600
O2535       O  0.59584866  0.78547364  0.54007748    -0.74200
O2536       O  0.62932305  0.83865480  0.43600559    -0.73600
O2537       O  0.66647365  0.76306408  0.48061549    -0.74300
O2538       O  0.59534367  0.83026850  0.47701391    -0.73700
O2539       O  0.66163133  0.78855807  0.43788886    -0.74200
O2540       O  0.71300772  0.87214166  0.43882069    -0.74100
O2541       O  0.73719963  0.90632325  0.48040198    -0.73900
C2542       C  0.73852803  0.84246058  0.54968523     0.77900
C2543       C  0.60454445  0.76471566  0.55133930     0.78400
C2544       C  0.65822244  0.89750011  0.55020594     0.77300
C2545       C  0.60203039  0.83583194  0.44778119     0.77700
C2546       C  0.66195818  0.76334600  0.45111819     0.78800
C2547       C  0.73750561  0.89937166  0.45138950     0.77900
Zn2548     Zn  0.70460061  0.87858964  0.98708355     1.49700
Zn2549     Zn  0.62299707  0.82746035  0.98778170     1.49400
Zn2550     Zn  0.67277441  0.79660822  0.98930860     1.49100
Zn2551     Zn  0.66796235  0.83662503  0.04845275     1.49500
O2552       O  0.66705039  0.83476528  0.00293351    -1.83400
O2553       O  0.68672821  0.90437785  0.96196264    -0.74000
O2554       O  0.59586139  0.78220345  0.96410374    -0.73800
O2555       O  0.71694823  0.81385630  0.96483638    -0.73300
O2556       O  0.63075384  0.86558211  0.95848456    -0.74000
O2557       O  0.73509102  0.86975533  0.95911537    -0.73600
O2558       O  0.63358422  0.76428391  0.96144937    -0.74200
O2559       O  0.66132426  0.79252819  0.06660555    -0.73600
O2560       O  0.59544979  0.83114018  0.02322623    -0.74300
O2561       O  0.67028127  0.76712139  0.02583352    -0.73700
O2562       O  0.63006144  0.84347368  0.06461008    -0.74200
O2563       O  0.71325154  0.87577241  0.06422650    -0.74100
O2564       O  0.73570945  0.90868123  0.02214343    -0.73900
C2565       C  0.65669146  0.89495681  0.95148825     0.77900
C2566       C  0.60457775  0.76092581  0.95434336     0.78400
C2567       C  0.73798226  0.84351027  0.95338469     0.77300
C2568       C  0.66398251  0.76797588  0.05483905     0.77700
C2569       C  0.60259462  0.83941038  0.05202514     0.78800
C2570       C  0.73714265  0.90309397  0.05123047     0.77900
N2571       N  0.55230981  0.59732666  0.25221337    -0.35900
N2572       N  0.99951203  0.56741376  0.30191028    -0.56400
N2573       N  0.94920468  0.54519775  0.25253317    -0.35800
N2574       N  0.00160636  0.57478734  0.20471966    -0.56400
C2575       C  0.57007520  0.61344312  0.27851516     0.27700
C2576       C  0.57230539  0.61513885  0.22752593     0.27700
C2577       C  0.92995332  0.54151214  0.27815287     0.27700
C2578       C  0.93111210  0.54513710  0.22719841     0.27700
C2579       C  0.52598959  0.57701448  0.31744971     0.36300
C2580       C  0.97115781  0.54591883  0.31869560     0.36400
C2581       C  0.53151387  0.58185578  0.18502278     0.36300
C2582       C  0.97393889  0.55507874  0.18636865     0.36400
C2583       C  0.60130653  0.64246219  0.27052182    -0.21100
C2584       C  0.60271617  0.64354682  0.23816673    -0.21100
C2585       C  0.89971045  0.54019904  0.26911407    -0.21100
C2586       C  0.90043178  0.54245613  0.23678695    -0.21100
C2587       C  0.51447828  0.56053114  0.34613077    -0.22200
C2588       C  0.98063295  0.53939668  0.34770959    -0.22200
C2589       C  0.52237787  0.56780719  0.15513340    -0.22200
C2590       C  0.98448998  0.55145510  0.15676869    -0.22200
C2591       C  0.56067752  0.59943977  0.30895900    -0.17500
C2592       C  0.56545928  0.60330885  0.19622255    -0.17500
C2593       C  0.93955879  0.54208728  0.19597275    -0.17500
C2594       C  0.93717946  0.53451209  0.30860456    -0.17500
H2595       H  0.62167991  0.65987389  0.28633754     0.15400
H2596       H  0.62437975  0.66198856  0.22411727     0.15400
H2597       H  0.87854038  0.53610581  0.28409454     0.15400
H2598       H  0.87992642  0.54039436  0.22194537     0.15400
H2599       H  0.52996734  0.56193914  0.36613839     0.13700
H2600       H  0.96375201  0.52425515  0.36673284     0.13700
H2601       H  0.53947144  0.57032527  0.13618178     0.13700
H2602       H  0.96832548  0.53797719  0.13675369     0.13700
H2603       H  0.53074957  0.57244233  0.25118727     0.26900
H2604       H  0.97034238  0.54168954  0.25195833     0.26900
N2605       N  0.95407001  0.90353668  0.24758163    -0.35900
N2606       N  0.92857303  0.93118145  0.20050121    -0.56400
N2607       N  0.90439086  0.95583440  0.25096715    -0.35800
N2608       N  0.92910091  0.92735994  0.29803842    -0.56400
C2609       C  0.95525577  0.88745822  0.22119040     0.27700
C2610       C  0.95553425  0.88540281  0.27228015     0.27700
C2611       C  0.88758100  0.95894403  0.22600724     0.27700
C2612       C  0.88803675  0.95705857  0.27709730     0.27700
C2613       C  0.94858607  0.92413999  0.18205579     0.36300
C2614       C  0.92138439  0.95232283  0.18388639     0.36400
C2615       C  0.94951121  0.91924841  0.31471673     0.36300
C2616       C  0.92263727  0.94775486  0.31660822     0.36400
C2617       C  0.95635520  0.85811151  0.22913797    -0.21100
C2618       C  0.95652353  0.85680804  0.26151715    -0.21100
C2619       C  0.85955470  0.96111377  0.23632537    -0.21100
C2620       C  0.85983587  0.95990459  0.26869588    -0.21100
C2621       C  0.95346899  0.94015791  0.15315410    -0.22200
C2622       C  0.93609793  0.95803035  0.15429730    -0.22200
C2623       C  0.95541510  0.93388332  0.34438827    -0.22200
C2624       C  0.93827361  0.95196002  0.34562102    -0.22200
C2625       C  0.96041196  0.90163966  0.19071543    -0.17500
C2626       C  0.96086428  0.89708072  0.30370809    -0.17500
C2627       C  0.90114893  0.96074042  0.30788769    -0.17500
C2628       C  0.89998733  0.96457852  0.19483475    -0.17500
H2629       H  0.95867531  0.84057005  0.21327645     0.15400
H2630       H  0.95898594  0.83807166  0.27551168     0.15400
H2631       H  0.84193456  0.96507689  0.22211047     0.15400
H2632       H  0.84246721  0.96273402  0.28430091     0.15400
H2633       H  0.96737330  0.93850240  0.13316669     0.13700
H2634       H  0.93394855  0.97286505  0.13535726     0.13700
H2635       H  0.97002564  0.93137589  0.36327907     0.13700
H2636       H  0.93695742  0.96599410  0.36570102     0.13700
H2637       H  0.95816440  0.92853581  0.24862465     0.26900
H2638       H  0.92889557  0.95881718  0.25042307     0.26900
C2639       C  0.85816790  0.98054120  0.37463853     0.03000
C2640       C  0.87060423  0.51251761  0.37237275     0.03000
C2641       C  0.89806718  0.53097899  0.35144723    -0.17500
C2642       C  0.90792083  0.51375760  0.33024083     0.03000
C2643       C  0.89333996  0.98052356  0.33116265     0.03000
C2644       C  0.86666094  0.96260222  0.35285124    -0.17500
H2645       H  0.85208446  0.93452239  0.35250080     0.05000
H2646       H  0.91173143  0.55905061  0.35142013     0.05000
N2647       N  0.54508568  0.94750661  0.24796882    -0.35900
N2648       N  0.57268004  0.50236055  0.20078973    -0.56400
N2649       N  0.59544519  0.55197856  0.25115154    -0.35800
N2650       N  0.56738892  0.49858402  0.29812045    -0.56400
C2651       C  0.54262908  0.92904909  0.22205444     0.27700
C2652       C  0.54327822  0.92829808  0.27307170     0.27700
C2653       C  0.61370539  0.57183005  0.22651344     0.27700
C2654       C  0.61122066  0.56988142  0.27752114     0.27700
C2655       C  0.55002006  0.97195115  0.18200818     0.36300
C2656       C  0.58116054  0.53093952  0.18379099     0.36400
C2657       C  0.55160627  0.97001987  0.31478076     0.36300
C2658       C  0.57436569  0.52584430  0.31652879     0.36400
C2659       C  0.54028448  0.89816736  0.23068793    -0.21100
C2660       C  0.54069151  0.89769020  0.26305950    -0.21100
C2661       C  0.64195415  0.60228679  0.23727361    -0.21100
C2662       C  0.64041026  0.60102078  0.26959583    -0.21100
C2663       C  0.54519348  0.98243460  0.15279183    -0.22200
C2664       C  0.56759248  0.52177147  0.15374681    -0.22200
C2665       C  0.54731125  0.97956036  0.34463020    -0.22200
C2666       C  0.55833843  0.51444713  0.34540527    -0.22200
C2667       C  0.53752216  0.93750579  0.19144884    -0.17500
C2668       C  0.53898468  0.93586928  0.30427294    -0.17500
C2669       C  0.59711145  0.56058828  0.30797384    -0.17500
C2670       C  0.60254141  0.56494767  0.19501171    -0.17500
H2671       H  0.53676194  0.87740191  0.21531313     0.15400
H2672       H  0.53754630  0.87648793  0.27756626     0.15400
H2673       H  0.66064295  0.62388519  0.22329195     0.15400
H2674       H  0.65773372  0.62143084  0.28538983     0.15400
H2675       H  0.53100475  0.96618640  0.13304345     0.13700
H2676       H  0.57083285  0.53891306  0.13452294     0.13700
H2677       H  0.53354269  0.96268188  0.36413703     0.13700
H2678       H  0.56012373  0.53009773  0.36543678     0.13700
H2679       H  0.54193629  0.96891152  0.24854164     0.26900
H2680       H  0.57060770  0.53039940  0.24995809     0.26900
C2681       C  0.85373685  0.98681810  0.13291860     0.03000
C2682       C  0.87448591  0.52270946  0.13112049     0.03000
C2683       C  0.90124190  0.54045683  0.15298588    -0.17500
C2684       C  0.91108377  0.52245730  0.17326195     0.03000
C2685       C  0.89130274  0.98526967  0.17343502     0.03000
C2686       C  0.86317375  0.96816673  0.15293293    -0.17500
H2687       H  0.84851257  0.94010474  0.15261431     0.05000
H2688       H  0.91431287  0.56844749  0.15447637     0.05000
C2689       C  0.64398393  0.62524631  0.37322197     0.03000
C2690       C  0.62546051  0.64289125  0.37478609     0.03000
C2691       C  0.59811175  0.63381903  0.35376064    -0.17500
C2692       C  0.58850493  0.60710743  0.33190926     0.03000
C2693       C  0.60611774  0.58856375  0.33131252     0.03000
C2694       C  0.63351615  0.59765654  0.35211326    -0.17500
H2695       H  0.64754706  0.58396382  0.35112854     0.05000
H2696       H  0.58476468  0.64820885  0.35385120     0.05000
C2697       C  0.65121473  0.63405039  0.13348957     0.03000
C2698       C  0.63275400  0.65176475  0.13378654     0.03000
C2699       C  0.60520214  0.64161313  0.15466596    -0.17500
C2700       C  0.59502750  0.61343972  0.17472455     0.03000
C2701       C  0.61250938  0.59476653  0.17372663     0.03000
C2702       C  0.64004664  0.60491708  0.15280852    -0.17500
H2703       H  0.65294098  0.59012339  0.15170860     0.05000
H2704       H  0.59133527  0.65549306  0.15503152     0.05000
C2705       C  0.98067817  0.85045082  0.36751647     0.03000
C2706       C  0.51939417  0.87095776  0.36919231     0.03000
C2707       C  0.53703161  0.89720835  0.34694526    -0.17500
C2708       C  0.51911034  0.90676287  0.32630744     0.03000
C2709       C  0.98063638  0.88724310  0.32519904     0.03000
C2710       C  0.96282122  0.85896977  0.34551081    -0.17500
H2711       H  0.93482381  0.84404823  0.34479694     0.05000
H2712       H  0.56498860  0.91044430  0.34573594     0.05000
C2713       C  0.98084142  0.85787527  0.12499095     0.03000
C2714       C  0.51652718  0.87364115  0.12532240     0.03000
C2715       C  0.53466386  0.89996323  0.14741848    -0.17500
C2716       C  0.51719678  0.90897266  0.16895946     0.03000
C2717       C  0.98034871  0.89367790  0.16778385     0.03000
C2718       C  0.96268993  0.86692908  0.14597253    -0.17500
H2719       H  0.93467410  0.85265442  0.14569805     0.05000
H2720       H  0.56266528  0.91342035  0.14801115     0.05000
C2721       C  0.62981599  0.70597788  0.06689620    -0.05000
C2722       C  0.65763284  0.73870050  0.07487524     0.00900
C2723       C  0.67784924  0.74272397  0.10172031    -0.07700
C2724       C  0.66918617  0.71337537  0.12001199    -0.05000
C2725       C  0.64120491  0.68063992  0.11215149     0.00900
C2726       C  0.62097306  0.67666750  0.08517457    -0.07600
C2727       C  0.58972456  0.64269510  0.07460523     0.62800
H2728       H  0.61440549  0.70339126  0.04633408     0.13500
H2729       H  0.68372601  0.71591050  0.14106843     0.13500
C2730       C  0.70864891  0.77766253  0.11063138     0.63000
F2731       F  0.59403523  0.63647533  0.04360302    -0.22100
F2732       F  0.56050374  0.64534228  0.07680386    -0.19500
F2733       F  0.58429752  0.61438563  0.09196795    -0.19100
F2734       F  0.69765606  0.80031447  0.11865445    -0.19200
F2735       F  0.73117173  0.79103915  0.08551021    -0.19500
F2736       F  0.72655738  0.77518314  0.13597380    -0.22200
C2737       C  0.57362519  0.87262102  0.06003622    -0.05000
C2738       C  0.57937777  0.84646668  0.07071677     0.00900
C2739       C  0.56406868  0.82887109  0.09903207    -0.07700
C2740       C  0.54288895  0.83794755  0.11566695    -0.05000
C2741       C  0.53680446  0.86387989  0.10484632     0.00900
C2742       C  0.55321171  0.88234185  0.07710128    -0.07600
C2743       C  0.05640624  0.91793217  0.06658410     0.62800
H2744       H  0.58610764  0.88603963  0.03851689     0.13500
H2745       H  0.53165646  0.82553048  0.13784813     0.13500
C2746       C  0.56994527  0.80061727  0.11147681     0.63000
F2747       F  0.09019656  0.94527922  0.06608649    -0.22100
F2748       F  0.03749548  0.92761479  0.08490461    -0.19500
F2749       F  0.04332197  0.91221686  0.03636179    -0.19100
F2750       F  0.60416846  0.81472305  0.12011186    -0.19200
F2751       F  0.56180522  0.77580560  0.08850325    -0.19500
F2752       F  0.54969510  0.78435787  0.13751879    -0.22200
C2753       C  0.76167573  0.92880433  0.10316329    -0.05000
C2754       C  0.76716268  0.92810341  0.07070662     0.00900
C2755       C  0.80118385  0.94900935  0.05858359    -0.07700
C2756       C  0.82848706  0.96787205  0.07980606    -0.05000
C2757       C  0.82304165  0.96734482  0.11223975     0.00900
C2758       C  0.78895706  0.94831083  0.12421229    -0.07600
C2759       C  0.78114525  0.94821733  0.15899068     0.62800
H2760       H  0.73563902  0.91326665  0.11214106     0.13500
H2761       H  0.85465258  0.98279587  0.07124423     0.13500
C2762       C  0.80927138  0.95089649  0.02372322     0.63000
F2763       F  0.74600638  0.93276386  0.16447106    -0.22100
F2764       F  0.79680452  0.98169885  0.17036004    -0.19500
F2765       F  0.79310008  0.93007918  0.17567455    -0.19100
F2766       F  0.79243815  0.96476016  0.00762311    -0.19200
F2767       F  0.79880580  0.91812610  0.01237453    -0.19500
F2768       F  0.84426895  0.97170142  0.01769857    -0.22200
C2769       C  0.66422685  0.70494661  0.38743564    -0.05000
C2770       C  0.63588065  0.67281059  0.39612363     0.00900
C2771       C  0.61682168  0.67035044  0.42344249    -0.07700
C2772       C  0.62715641  0.70045477  0.44133099    -0.05000
C2773       C  0.65491655  0.73277735  0.43217355     0.00900
C2774       C  0.67406479  0.73519211  0.40494443    -0.07600
C2775       C  0.70476343  0.76943087  0.39447486     0.62800
H2776       H  0.67788837  0.70639331  0.36609836     0.13500
H2777       H  0.61265608  0.69928057  0.46200897     0.13500
C2778       C  0.58527897  0.63636161  0.43329871     0.63000
F2779       F  0.72249979  0.76510395  0.37004678    -0.22100
F2780       F  0.72754852  0.78477894  0.41923751    -0.19500
F2781       F  0.69357514  0.79128940  0.38428933    -0.19100
F2782       F  0.57184751  0.63943462  0.46153514    -0.19200
F2783       F  0.59396474  0.61119415  0.43683963    -0.19500
F2784       F  0.55968294  0.62569041  0.41078688    -0.22200
C2785       C  0.54459573  0.83423870  0.38114351    -0.05000
C2786       C  0.53995175  0.86169051  0.39012672     0.00900
C2787       C  0.55642028  0.88082152  0.41763999    -0.07700
C2788       C  0.57498160  0.87017800  0.43643885    -0.05000
C2789       C  0.57922091  0.84248270  0.42772780     0.00900
C2790       C  0.56385905  0.82404606  0.39963149    -0.07600
C2791       C  0.56699349  0.79330371  0.38965804     0.62800
H2792       H  0.53340596  0.82116051  0.35916323     0.13500
H2793       H  0.58768704  0.88440723  0.45762181     0.13500
C2794       C  0.55579051  0.91322478  0.42645068     0.63000
F2795       F  0.54761955  0.77735807  0.36302633    -0.22100
F2796       F  0.55532571  0.76906434  0.41354205    -0.19500
F2797       F  0.60106720  0.80398797  0.38311011    -0.19100
F2798       F  0.52216273  0.90541709  0.43006447    -0.19200
F2799       F  0.57146985  0.93784523  0.40314948    -0.19500
F2800       F  0.57316383  0.92757611  0.45432238    -0.22200
C2801       C  0.79991215  0.92623406  0.44191954    -0.05000
C2802       C  0.76818848  0.92202472  0.43225295     0.00900
C2803       C  0.76608573  0.93671988  0.40356562    -0.07700
C2804       C  0.79621953  0.95547040  0.38554763    -0.05000
C2805       C  0.82811726  0.96025799  0.39546497     0.00900
C2806       C  0.82992008  0.94441691  0.42363929    -0.07600
C2807       C  0.86179991  0.94415357  0.43498649     0.62800
H2808       H  0.80094998  0.91389940  0.46346449     0.13500
H2809       H  0.79500928  0.96612427  0.36311609     0.13500
C2810       C  0.73241231  0.93319168  0.39231185     0.63000
F2811       F  0.87001707  0.95767610  0.46505960    -0.22100
F2812       F  0.89042831  0.96286204  0.41615280    -0.19500
F2813       F  0.85459990  0.91031221  0.43578611    -0.19100
F2814       F  0.71910657  0.94466663  0.41547512    -0.19200
F2815       F  0.70876823  0.89895814  0.38540068    -0.19500
F2816       F  0.73130455  0.45069271  0.36281014    -0.22200
C2817       C  0.54762286  0.70703632  0.88643868    -0.05000
C2818       C  0.54046744  0.67386677  0.89503378     0.00900
C2819       C  0.55517189  0.66955280  0.92283540    -0.07700
C2820       C  0.57504823  0.69857278  0.94207453    -0.05000
C2821       C  0.58094004  0.73148104  0.93414233     0.00900
C2822       C  0.56728815  0.73603088  0.90578303    -0.07600
C2823       C  0.57452379  0.77148073  0.89543172     0.62800
H2824       H  0.53803027  0.71010461  0.86409125     0.13500
H2825       H  0.58654160  0.69590830  0.96346102     0.13500
C2826       C  0.55053532  0.63472127  0.93185628     0.63000
F2827       F  0.56237088  0.77074286  0.86539397    -0.22100
F2828       F  0.60975540  0.79479892  0.89558847    -0.19500
F2829       F  0.55844610  0.78293226  0.91566078    -0.19100
F2830       F  0.51588934  0.61087723  0.93566978    -0.19200
F2831       F  0.56724646  0.63643695  0.95970530    -0.19500
F2832       F  0.56387697  0.62331788  0.90870029    -0.22200
C2833       C  0.61950577  0.91784105  0.93568066    -0.05000
C2834       C  0.65079059  0.91849097  0.93148365     0.00900
C2835       C  0.67413131  0.93996380  0.90783741    -0.07700
C2836       C  0.66470035  0.95938953  0.88873307    -0.05000
C2837       C  0.63326049  0.95834193  0.89282551     0.00900
C2838       C  0.61027971  0.93753370  0.91690158    -0.07600
C2839       C  0.57638906  0.93634280  0.92324473     0.62800
H2840       H  0.60208466  0.90150927  0.95396399     0.13500
H2841       H  0.68181289  0.97563782  0.87024573     0.13500
C2842       C  0.70833879  0.94183154  0.90210768     0.63000
F2843       F  0.55338611  0.91971893  0.89894768    -0.22100
F2844       F  0.58739983  0.47172079  0.92482862    -0.19500
F2845       F  0.56558721  0.42069688  0.94913608    -0.19100
F2846       F  0.70280619  0.90888671  0.89740700    -0.19200
F2847       F  0.72989064  0.95692019  0.92768708    -0.19500
F2848       F  0.72512431  0.96147748  0.87589277    -0.22200
C2849       C  0.80064744  0.87625782  0.56254231    -0.05000
C2850       C  0.76817563  0.84691268  0.56861156    -0.02500
C2851       C  0.76466783  0.82422923  0.59338576    -0.07700
C2852       C  0.79408695  0.83189984  0.61118758    -0.05000
C2853       C  0.82627828  0.86163346  0.60555664     0.00900
C2854       C  0.82986147  0.88434916  0.58080979    -0.07600
C2855       C  0.86409741  0.91723486  0.57385278     0.62800
H2856       H  0.80276353  0.89329929  0.54357606     0.13500
H2857       H  0.79185542  0.81543140  0.63061199     0.13500
C2858       C  0.72980981  0.79339964  0.60241804     0.63000
F2859       F  0.87363778  0.94008937  0.59871369    -0.22100
F2860       F  0.86210615  0.93399249  0.54735431    -0.19500
F2861       F  0.88963461  0.90939871  0.56885094    -0.19100
F2862       F  0.71743402  0.76919779  0.57847875    -0.19200
F2863       F  0.70660521  0.80432660  0.60809001    -0.19500
F2864       F  0.73187571  0.77721312  0.62930885    -0.22200
C2865       C  0.79177166  0.83335727  0.88981891    -0.05000
C2866       C  0.82326617  0.86458572  0.89333145     0.00900
C2867       C  0.82714526  0.88795011  0.91754434    -0.07700
C2868       C  0.79868985  0.87953354  0.93686873    -0.05000
C2869       C  0.76699693  0.84843929  0.93328309     0.00900
C2870       C  0.76350077  0.82449783  0.90970094    -0.07600
C2871       C  0.73005392  0.79022629  0.90489669     0.62800
H2872       H  0.78943389  0.81605112  0.87107065     0.13500
H2873       H  0.80093437  0.89753026  0.95493405     0.13500
C2874       C  0.86108581  0.92161535  0.92315742     0.63000
F2875       F  0.73137964  0.77276478  0.87862387    -0.22100
F2876       F  0.70279847  0.79586654  0.90100201    -0.19500
F2877       F  0.72392230  0.76914124  0.93067479    -0.19100
F2878       F  0.88806781  0.91529484  0.92450498    -0.19200
F2879       F  0.86075455  0.93715376  0.95114712    -0.19500
F2880       F  0.86709647  0.94476054  0.89920351    -0.22200
C2881       C  0.65989410  0.95325169  0.61873889    -0.05000
C2882       C  0.63444451  0.96065290  0.60928859     0.00900
C2883       C  0.61708134  0.94735132  0.58029492    -0.07700
C2884       C  0.62704204  0.92840753  0.56118955    -0.05000
C2885       C  0.65270907  0.92124330  0.57040389     0.00900
C2886       C  0.66935302  0.93363671  0.59981244    -0.07600
C2887       C  0.69600293  0.92517274  0.61168000     0.62800
H2888       H  0.67211792  0.96277471  0.64137318     0.13500
H2889       H  0.61392857  0.91829949  0.53893427     0.13500
C2890       C  0.58765704  0.95161014  0.56830119     0.63000
F2891       F  0.70611533  0.93651342  0.64220908    -0.22100
F2892       F  0.72501937  0.94107467  0.59282306    -0.19500
F2893       F  0.68237697  0.88971435  0.61113625    -0.19100
F2894       F  0.56844684  0.45102347  0.58654751    -0.19200
F2895       F  0.55983384  0.91943268  0.56055181    -0.19500
F2896       F  0.59839469  0.97202886  0.54165904    -0.22200
C2897       C  0.54451909  0.67460422  0.58187017    -0.05000
C2898       C  0.54188209  0.68126643  0.61352301     0.00900
C2899       C  0.55861078  0.71591266  0.62465800    -0.07700
C2900       C  0.57722452  0.74294489  0.60306220    -0.05000
C2901       C  0.58057109  0.73597599  0.57158668     0.00900
C2902       C  0.56407336  0.70142171  0.56069053    -0.07600
C2903       C  0.56785923  0.69293288  0.52696878     0.62800
H2904       H  0.53217331  0.64800048  0.57411384     0.13500
H2905       H  0.59086302  0.76965130  0.61089655     0.13500
C2906       C  0.04803819  0.72029972  0.65079148     0.63000
F2907       F  0.54725005  0.65790269  0.52060795    -0.22100
F2908       F  0.60181256  0.70239665  0.52141772    -0.19500
F2909       F  0.55845753  0.71075111  0.50666942    -0.19100
F2910       F  0.08017561  0.73549523  0.66497651    -0.19200
F2911       F  0.02487121  0.69291440  0.66920971    -0.19500
F2912       F  0.03734485  0.74420653  0.64979452    -0.22200
C2913       C  0.92135434  0.62086683  0.56218051    -0.05000
C2914       C  0.92006560  0.65101900  0.56772312     0.00900
C2915       C  0.93966612  0.67343961  0.59267010    -0.07700
C2916       C  0.95912220  0.66409512  0.61183977    -0.05000
C2917       C  0.95997901  0.63369094  0.60646101     0.00900
C2918       C  0.94114674  0.61180842  0.58100584    -0.07600
C2919       C  0.44734054  0.58237894  0.57816368     0.62800
H2920       H  0.90623027  0.60407250  0.54298835     0.13500
H2921       H  0.97366018  0.68035488  0.63145321     0.13500
C2922       C  0.93949417  0.70654372  0.59953696     0.63000
F2923       F  0.42947480  0.55821535  0.60131746    -0.22100
F2924       F  0.48106594  0.58955871  0.57761519    -0.19500
F2925       F  0.43235715  0.56757027  0.54959623    -0.19100
F2926       F  0.90589327  0.69933612  0.60298762    -0.19200
F2927       F  0.95511858  0.72965376  0.57509258    -0.19500
F2928       F  0.95731917  0.72240766  0.62684930    -0.22200
C2929       C  0.87032797  0.56910437  0.43924940    -0.05000
C2930       C  0.84229353  0.57279194  0.43066887     0.00900
C2931       C  0.82248720  0.55530770  0.40380967    -0.07700
C2932       C  0.83240827  0.53566320  0.38556879    -0.05000
C2933       C  0.86084793  0.53240704  0.39378644     0.00900
C2934       C  0.88041696  0.54964800  0.42094422    -0.07600
C2935       C  0.91237126  0.54842136  0.43014556     0.62800
H2936       H  0.88518279  0.58286602  0.45983938     0.13500
H2937       H  0.81850746  0.52339862  0.36418983     0.13500
C2938       C  0.79066476  0.55687347  0.39489866     0.63000
F2939       F  0.93750684  0.56423172  0.40735506    -0.22100
F2940       F  0.90412466  0.51455015  0.43336872    -0.19500
F2941       F  0.92619228  0.56515636  0.45837802    -0.19100
F2942       F  0.80018541  0.59009451  0.38571852    -0.19200
F2943       F  0.76866214  0.54751445  0.42040820    -0.19500
F2944       F  0.77267226  0.53458902  0.37037942    -0.22200
C2945       C  0.70214902  0.58134626  0.56602326    -0.05000
C2946       C  0.73168152  0.57826137  0.56773634     0.00900
C2947       C  0.73202482  0.55399398  0.58883737    -0.07700
C2948       C  0.70291736  0.53436251  0.60787805    -0.05000
C2949       C  0.67321215  0.53692586  0.60549472     0.00900
C2950       C  0.67255159  0.56063753  0.58398565    -0.07600
C2951       C  0.64211823  0.56623723  0.57995942     0.62800
H2952       H  0.70202300  0.60011525  0.55012745     0.13500
H2953       H  0.70345209  0.51735119  0.62551106     0.13500
C2954       C  0.76311712  0.54949253  0.59228009     0.63000
F2955       F  0.63734706  0.57017352  0.54844957    -0.22100
F2956       F  0.64907549  0.59602610  0.59575147    -0.19500
F2957       F  0.61135740  0.53898897  0.59103613    -0.19100
F2958       F  0.79235790  0.58108763  0.59882845    -0.19200
F2959       F  0.76794991  0.53609231  0.56479822    -0.19500
F2960       F  0.75885002  0.52692605  0.61635364    -0.22200
C2961       C  0.91964374  0.79244847  0.43190192    -0.05000
C2962       C  0.92054548  0.76212088  0.42710802     0.00900
C2963       C  0.94160940  0.76085446  0.40323955    -0.07700
C2964       C  0.96106046  0.79042439  0.38449056    -0.05000
C2965       C  0.96040332  0.82108294  0.38932110     0.00900
C2966       C  0.93893576  0.82201979  0.41332860    -0.07600
C2967       C  0.93430504  0.85258877  0.42041672     0.62800
H2968       H  0.90294605  0.79278563  0.45008401     0.13500
H2969       H  0.97616545  0.78943735  0.36523142     0.13500
C2970       C  0.94340936  0.72843446  0.39775383     0.63000
F2971       F  0.94134569  0.86131845  0.45182389    -0.22100
F2972       F  0.90034750  0.84305751  0.41453279    -0.19500
F2973       F  0.95541428  0.88179291  0.40302992    -0.19100
F2974       F  0.91166284  0.70191007  0.38747809    -0.19200
F2975       F  0.95203975  0.71856172  0.42545292    -0.19500
F2976       F  0.46541758  0.73526428  0.37313580    -0.22200
C2977       C  0.66980197  0.62057936  0.42257176    -0.05000
C2978       C  0.67492796  0.63546976  0.39270001     0.00900
C2979       C  0.70903534  0.65705053  0.38131772    -0.07700
C2980       C  0.73687973  0.66385858  0.40094743    -0.05000
C2981       C  0.73180583  0.64985486  0.43121674     0.00900
C2982       C  0.69769048  0.62729544  0.44219194    -0.07600
C2983       C  0.69059396  0.60924398  0.47384562     0.62800
H2984       H  0.64362480  0.60293664  0.43016327     0.13500
H2985       H  0.76304745  0.68037833  0.39246057     0.13500
C2986       C  0.71797532  0.67312110  0.34877220     0.63000
F2987       F  0.65602645  0.58435312  0.47744627    -0.22100
F2988       F  0.69958040  0.63325268  0.49769609    -0.19500
F2989       F  0.70950048  0.59291677  0.47677407    -0.19100
F2990       F  0.68952146  0.66639682  0.33102601    -0.19200
F2991       F  0.73593173  0.66049757  0.33268157    -0.19500
F2992       F  0.73887590  0.70866480  0.35162191    -0.22200
C2993       C  0.87223413  0.82745809  0.57676984    -0.05000
C2994       C  0.86280767  0.82121683  0.60851558     0.00900
C2995       C  0.84612087  0.78679901  0.62018589    -0.07700
C2996       C  0.83879079  0.75962036  0.59918464    -0.05000
C2997       C  0.84894642  0.76611214  0.56762948     0.00900
C2998       C  0.86586350  0.80041581  0.55607658    -0.07600
C2999       C  0.87711155  0.80823085  0.52200095     0.62800
H3000       H  0.88571703  0.85385371  0.56851182     0.13500
H3001       H  0.82652841  0.73317847  0.60757256     0.13500
C3002       C  0.83775075  0.77882680  0.65486669     0.63000
F3003       F  0.89184419  0.84309902  0.51516861    -0.22100
F3004       F  0.84877959  0.78985174  0.50258202    -0.19500
F3005       F  0.90126580  0.79874758  0.51560881    -0.19100
F3006       F  0.81643559  0.74366495  0.66007034    -0.19200
F3007       F  0.82120954  0.79534445  0.66635677    -0.19500
F3008       F  0.86794147  0.78989225  0.67160883    -0.22200
C3009       C  0.73976891  0.57846997  0.89720615    -0.05000
C3010       C  0.73497713  0.57611819  0.92982313     0.00900
C3011       C  0.70229954  0.55207126  0.94252515    -0.07700
C3012       C  0.67467364  0.53304713  0.92184354    -0.05000
C3013       C  0.67885224  0.53648733  0.88916827     0.00900
C3014       C  0.71227150  0.55851421  0.87645724    -0.07600
C3015       C  0.71914286  0.56117396  0.84130752     0.62800
H3016       H  0.76510828  0.59688041  0.88804766     0.13500
H3017       H  0.64937041  0.51557136  0.93145298     0.13500
C3018       C  0.69487383  0.54506458  0.97737879     0.63000
F3019       F  0.75415625  0.57725917  0.83494641    -0.22100
F3020       F  0.70663592  0.58032736  0.82729380    -0.19500
F3021       F  0.70335918  0.52852724  0.82792243    -0.19100
F3022       F  0.66802613  0.55008701  0.98556191    -0.19200
F3023       F  0.72287117  0.56592263  0.99635035    -0.19500
F3024       F  0.68497480  0.51095184  0.98335986    -0.22200
C3025       C  0.74113971  0.66477938  0.10094038    -0.05000
C3026       C  0.73433783  0.65845316  0.06856151     0.00900
C3027       C  0.70017261  0.64647490  0.05746459    -0.07700
C3028       C  0.67395764  0.63894940  0.07954183    -0.05000
C3029       C  0.68077527  0.64415098  0.11183022     0.00900
C3030       C  0.71509318  0.65828814  0.12278416    -0.07600
C3031       C  0.72445042  0.66709403  0.15725634     0.62800
H3032       H  0.76731477  0.67480949  0.10919518     0.13500
H3033       H  0.64755627  0.62840957  0.07180538     0.13500
C3034       C  0.69082319  0.64096506  0.02279055     0.63000
F3035       F  0.70858410  0.63743885  0.17531118    -0.22100
F3036       F  0.71398100  0.68950827  0.16742997    -0.19500
F3037       F  0.75971477  0.68293947  0.16226511    -0.19100
F3038       F  0.69893380  0.61762609  0.01021576    -0.19200
F3039       F  0.70874343  0.67220044  0.00705593    -0.19500
F3040       F  0.65591523  0.62798853  0.01778703    -0.22200
C3041       C  0.92423448  0.62542513  0.93536261    -0.05000
C3042       C  0.92186221  0.65478480  0.92878176     0.00900
C3043       C  0.94007405  0.67580019  0.90265453    -0.07700
C3044       C  0.95954295  0.66607072  0.88385228    -0.05000
C3045       C  0.96204751  0.63680870  0.89073038     0.00900
C3046       C  0.94390173  0.61594162  0.91692953    -0.07600
C3047       C  0.43394362  0.57583180  0.92233147     0.62800
H3048       H  0.91017405  0.60929243  0.95527252     0.13500
H3049       H  0.97249431  0.68092039  0.86309568     0.13500
C3050       C  0.93791899  0.70739691  0.89380728     0.63000
F3051       F  0.40116140  0.55081295  0.91269044    -0.22100
F3052       F  0.43686036  0.57220630  0.95427001    -0.19500
F3053       F  0.45751742  0.56975656  0.90742424    -0.19100
F3054       F  0.95240897  0.73203389  0.91730917    -0.19200
F3055       F  0.90373732  0.69800226  0.88960030    -0.19500
F3056       F  0.95547908  0.72244127  0.86622434    -0.22200
C3057       C  0.83446097  0.54246162  0.11451081    -0.05000
C3058       C  0.86555078  0.54299554  0.10951164     0.00900
C3059       C  0.88737181  0.56263094  0.08427021    -0.07700
C3060       C  0.87703601  0.58110285  0.06486656    -0.05000
C3061       C  0.84647941  0.58133604  0.07051742     0.00900
C3062       C  0.82460544  0.56159262  0.09549842    -0.07600
C3063       C  0.79103449  0.56073368  0.10192005     0.62800
H3064       H  0.81829701  0.52753305  0.13395323     0.13500
H3065       H  0.89337036  0.59656140  0.04563079     0.13500
C3066       C  0.92155390  0.56449685  0.07791697     0.63000
F3067       F  0.77138339  0.53633295  0.12446321    -0.22100
F3068       F  0.77159952  0.55249004  0.07468164    -0.19500
F3069       F  0.79813799  0.59282618  0.11251871    -0.19100
F3070       F  0.91652553  0.53157804  0.07517467    -0.19200
F3071       F  0.94442548  0.58160733  0.10219438    -0.19500
F3072       F  0.93673214  0.58219845  0.05041711    -0.22200
C3073       C  0.95414594  0.79557648  0.11438395    -0.05000
C3074       C  0.96087674  0.82804169  0.10384023     0.00900
C3075       C  0.94716460  0.83069878  0.07468522    -0.07700
C3076       C  0.92783814  0.80055169  0.05674115    -0.05000
C3077       C  0.92068822  0.76803807  0.06745181     0.00900
C3078       C  0.93407178  0.76530683  0.09668686    -0.07600
C3079       C  0.92743848  0.73072855  0.10902853     0.62800
H3080       H  0.96415266  0.79405149  0.13709045     0.13500
H3081       H  0.91699687  0.80224637  0.03457072     0.13500
C3082       C  0.95113684  0.86395070  0.06144264     0.63000
F3083       F  0.94733256  0.73472946  0.13527210    -0.22100
F3084       F  0.93542652  0.71404164  0.08616323    -0.19500
F3085       F  0.89306768  0.71022393  0.11729410    -0.19100
F3086       F  0.96921302  0.89227074  0.08084914    -0.19200
F3087       F  0.91873395  0.85951596  0.05651257    -0.19500
F3088       F  0.96817265  0.87112973  0.03295995    -0.22200
C3089       C  0.87052372  0.82887393  0.92158311    -0.05000
C3090       C  0.85731225  0.82252417  0.89096078     0.00900
C3091       C  0.83697548  0.78793058  0.87996068    -0.07700
C3092       C  0.83094830  0.76076527  0.90025828    -0.05000
C3093       C  0.84537603  0.76722128  0.93040788     0.00900
C3094       C  0.86532613  0.80172005  0.94148901    -0.07600
C3095       C  0.88158709  0.80982611  0.97395201     0.62800
H3096       H  0.88631108  0.85548576  0.92927473     0.13500
H3097       H  0.81588661  0.73422110  0.89203185     0.13500
C3098       C  0.82185034  0.77798190  0.84707929     0.63000
F3099       F  0.89734660  0.84475551  0.98103911    -0.22100
F3100       F  0.90646082  0.80053408  0.97544566    -0.19500
F3101       F  0.85652149  0.79164578  0.99638026    -0.19100
F3102       F  0.83695415  0.76196983  0.83162093    -0.19200
F3103       F  0.82676901  0.80580042  0.82920072    -0.19500
F3104       F  0.78665415  0.75492634  0.84912354    -0.22200
loop_ 
_geom_bond_atom_site_label_1 
_geom_bond_atom_site_label_2 
_geom_bond_distance 
_geom_bond_site_symmetry_2 
_ccdc_geom_bond_type 
Zn1           O5   1.951   1_554  S
Zn1           O6   2.018       .  S
Zn1          O10   2.022       .  S
Zn1          O17   2.017       .  S
Zn2           O5   1.956       .  S
Zn2           O7   2.028       .  S
Zn2           O9   2.014   1_556  S
Zn2          O13   2.006       .  S
Zn3           O5   1.954       .  S
Zn3           O8   2.021   1_556  S
Zn3          O11   1.990       .  S
Zn3          O14   2.023       .  S
Zn4           O5   1.955       .  S
Zn4          O12   2.015       .  S
Zn4          O15   2.029       .  S
Zn4          O16   2.017   1_556  S
O6           C18   1.273       .  A
O7           C19   1.274       .  A
O8           C20   1.273       .  A
O9           C18   1.273       .  A
O10          C20   1.273       .  A
O11          C19   1.271       .  A
O12          C21   1.273       .  A
O13          C22   1.271       .  A
O14          C21   1.274       .  A
O15          C22   1.274       .  A
O16          C23   1.273       .  A
O17          C23   1.275       .  A
C18         C749   1.475       .  S
C19         C714   1.473       .  S
C20         C733   1.477       .  S
C21         C682   1.469       .  S
C22         C765   1.473       .  S
C23         C698   1.488       .  S
Zn24         O28   1.945       .  S
Zn24         O29   2.003       .  S
Zn24         O33   2.005       .  S
Zn24         O40   2.010       .  S
Zn25         O28   1.954       .  S
Zn25         O30   2.014       .  S
Zn25         O32   2.025       .  S
Zn25         O36   2.025       .  S
Zn26         O28   1.951       .  S
Zn26         O31   2.000       .  S
Zn26         O34   2.018       .  S
Zn26         O37   2.002       .  S
Zn27         O28   1.950       .  S
Zn27         O35   2.035       .  S
Zn27         O38   1.999       .  S
Zn27         O39   2.035       .  S
O29          C41   1.271       .  A
O30          C42   1.272       .  A
O31          C43   1.271       .  A
O32          C41   1.275       .  A
O33          C43   1.273       .  A
O34          C42   1.273       .  A
O35          C44   1.275       .  A
O36          C45   1.275       .  A
O37          C44   1.272       .  A
O38          C45   1.273       .  A
O39          C46   1.275       .  A
O40          C46   1.271       .  A
C41         C634   1.476       .  S
C42         C669   1.473       .  S
C43         C653   1.475       .  S
C44         C618   1.485       .  S
C45         C586   1.479       .  S
C46         C602   1.479       .  S
N47          C52   1.351       .  A
N47          C51   1.350       .  A
N47          H79   1.042       .  S
N48          C56   1.348   1_565  A
N48         C831   1.347       .  A
N49          C54   1.348       .  A
N49          C53   1.349       .  A
N49          H80   1.042       .  S
N50          C58   1.348   1_565  A
N50         C833   1.349       .  A
C51          C59   1.386       .  A
C51          C67   1.410       .  A
C52          C68   1.410       .  A
C52          C60   1.386       .  A
C53          C61   1.386       .  A
C53          C70   1.407       .  A
C54          C69   1.407       .  A
C54          C62   1.386       .  A
C55         N824   1.348       .  A
C55          C67   1.409       .  A
C55          C63   1.386       .  A
C56          C70   1.408       .  A
C56          C64   1.385       .  A
C57         N826   1.348       .  A
C57          C65   1.386       .  A
C57          C68   1.409       .  A
C58          C66   1.386       .  A
C58          C69   1.410       .  A
C59          C60   1.378       .  A
C59          H71   1.082       .  S
C60          H72   1.082       .  S
C61          C62   1.378       .  A
C61          H73   1.082       .  S
C62          H74   1.082       .  S
C63         C840   1.378       .  A
C63          H75   1.081       .  S
C64         C839   1.378   1_545  A
C64          H76   1.081       .  S
C65         C842   1.379       .  A
C65          H77   1.082       .  S
C66         C841   1.379   1_545  A
C66          H78   1.082       .  S
C67         C169   1.483       .  S
C68         C176   1.486       .  S
C69         C153   1.481       .  S
C70         C193   1.482       .  S
N81          C86   1.352       .  A
N81          C85   1.352       .  A
N81         H113   1.041       .  S
N82          C89   1.349       .  A
N82          C90   1.349       .  A
N83          C88   1.352       .  A
N83          C87   1.352       .  A
N83         H114   1.041       .  S
N84          C91   1.349       .  A
N84          C92   1.350       .  A
C85          C93   1.386       .  A
C85         C101   1.412       .  A
C86         C102   1.411       .  A
C86          C94   1.386       .  A
C87          C95   1.386       .  A
C87         C104   1.413       .  A
C88         C103   1.413       .  A
C88          C96   1.386       .  A
C89         C101   1.409       .  A
C89          C97   1.385       .  A
C90         C104   1.411       .  A
C90          C98   1.386       .  A
C91          C99   1.386       .  A
C91         C102   1.411       .  A
C92         C100   1.386       .  A
C92         C103   1.411       .  A
C93          C94   1.378       .  A
C93         H105   1.082       .  S
C94         H106   1.082       .  S
C95          C96   1.379       .  A
C95         H107   1.082       .  S
C96         H108   1.082       .  S
C97          C98   1.378       .  A
C97         H109   1.082       .  S
C98         H110   1.081       .  S
C99         C100   1.378       .  A
C99         H111   1.082       .  S
C100        H112   1.082       .  S
C101        C184   1.489       .  S
C102        C160   1.489       .  S
C103        C152   1.490       .  S
C104        C192   1.489       .  S
N115        C120   1.350       .  A
N115        C119   1.349       .  A
N115        H147   1.041       .  S
N116        C124   1.346   1_655  A
N116       C1675   1.347       .  A
N117        C122   1.350       .  A
N117        C121   1.349       .  A
N117        H148   1.042       .  S
N118        C126   1.349   1_655  A
N118       C1677   1.349       .  A
C119        C127   1.386       .  A
C119        C135   1.408       .  A
C120        C136   1.407       .  A
C120        C128   1.385       .  A
C121        C129   1.386       .  A
C121        C138   1.408       .  A
C122        C137   1.408       .  A
C122        C130   1.386       .  A
C123       N1668   1.348       .  A
C123        C135   1.410       .  A
C123        C131   1.386       .  A
C124        C138   1.406       .  A
C124        C132   1.386       .  A
C125       N1670   1.346       .  A
C125        C133   1.385       .  A
C125        C136   1.404       .  A
C126        C134   1.385       .  A
C126        C137   1.410       .  A
C127        C128   1.377       .  A
C127        H139   1.082       .  S
C128        H140   1.081       .  S
C129        C130   1.379       .  A
C129        H141   1.082       .  S
C130        H142   1.082       .  S
C131       C1684   1.379       .  A
C131        H143   1.082       .  S
C132       C1683   1.377   1_455  A
C132        H144   1.082       .  S
C133       C1686   1.376       .  A
C133        H145   1.082       .  S
C134       C1685   1.379   1_455  A
C134        H146   1.082       .  S
C135        C168   1.483       .  S
C136        C177   1.479       .  S
C137        C161   1.485       .  S
C138        C185   1.478       .  S
C149        C589   1.484       .  S
C149        C154   1.399       .  A
C149       C1702   1.415       .  A
C150        C570   1.484       .  S
C150        C151   1.405       .  A
C150       C1701   1.416   1_455  A
C151        C152   1.400       .  A
C151        H156   1.084       .  S
C152       C1705   1.414   1_455  A
C153        C154   1.397       .  A
C153       C1704   1.414       .  A
C154        H155   1.084       .  S
C157        C554   1.485       .  S
C157        C162   1.403       .  A
C157        C934   1.416       .  A
C158        C621   1.487       .  S
C158        C159   1.405       .  A
C158        C933   1.421   1_545  A
C159        C160   1.400       .  A
C159        H164   1.084       .  S
C160        C937   1.413   1_545  A
C161        C162   1.401       .  A
C161        C936   1.416       .  A
C162        H163   1.084       .  S
C165        C538   1.485       .  S
C165        C166   1.416       .  A
C165        C170   1.403       .  A
C166        C762   1.478       .  S
C166        C167   1.401       .  A
C167        C168   1.397       .  A
C167        H172   1.084       .  S
C168        C169   1.413       .  A
C169        C170   1.399       .  A
C170        H171   1.084       .  S
C173        C666   1.478       .  S
C173        C174   1.414       .  A
C173        C178   1.400       .  A
C174        C525   1.481       .  S
C174        C175   1.403       .  A
C175        C176   1.398       .  A
C175        H180   1.084       .  S
C176        C177   1.413       .  A
C177        C178   1.397       .  A
C178        H179   1.085       .  S
C181        C509   1.486       .  S
C181        C186   1.399       .  A
C181        C958   1.417       .  A
C182        C685   1.487       .  S
C182        C183   1.406       .  A
C182        C957   1.418   1_545  A
C183        C184   1.400       .  A
C183        H188   1.083       .  S
C184        C961   1.412   1_545  A
C185        C186   1.398       .  A
C185        C960   1.414       .  A
C186        H187   1.084       .  S
C189        C717   1.477       .  S
C189        C194   1.400       .  A
C189       C1742   1.414       .  A
C190        C490   1.482       .  S
C190        C191   1.405       .  A
C190       C1741   1.417   1_455  A
C191        C192   1.401       .  A
C191        H196   1.084       .  S
C192       C1745   1.413   1_455  A
C193        C194   1.398       .  A
C193       C1744   1.414       .  A
C194        H195   1.084       .  S
Zn197       O201   1.959       .  S
Zn197       O202   2.006       .  S
Zn197       O206   2.039       .  S
Zn197       O213   2.026       .  S
Zn198       O201   1.960       .  S
Zn198       O203   1.995       .  S
Zn198       O205   2.027       .  S
Zn198       O209   2.019       .  S
Zn199       O201   1.959       .  S
Zn199       O204   2.008       .  S
Zn199       O207   2.040       .  S
Zn199       O210   2.034       .  S
Zn200       O201   1.952       .  S
Zn200       O208   2.028       .  S
Zn200       O211   2.015       .  S
Zn200       O212   2.015       .  S
O202        C214   1.273       .  A
O203        C215   1.271       .  A
O204        C216   1.273       .  A
O205        C214   1.273       .  A
O206        C216   1.276       .  A
O207        C215   1.276       .  A
O208        C217   1.274       .  A
O209        C218   1.273       .  A
O210        C217   1.275       .  A
O211        C218   1.273       .  A
O212        C219   1.273       .  A
O213        C219   1.274       .  A
C214        C522   1.484       .  S
C215        C573   1.471       .  S
C216        C557   1.479       .  S
C217        C461   1.483       .  S
C218        C445   1.475       .  S
C219        C474   1.477       .  S
Zn220       O224   1.951   1_556  S
Zn220       O225   2.025       .  S
Zn220       O229   2.014       .  S
Zn220       O236   2.017   1_556  S
Zn221       O224   1.953   1_556  S
Zn221       O226   2.022       .  S
Zn221       O228   2.001       .  S
Zn221       O232   2.020   1_556  S
Zn222       O224   1.951   1_556  S
Zn222       O227   2.032       .  S
Zn222       O230   1.998       .  S
Zn222       O233   2.022   1_556  S
Zn223       O224   1.944       .  S
Zn223       O231   2.015       .  S
Zn223       O234   2.019       .  S
Zn223       O235   2.013       .  S
O225        C237   1.274       .  A
O226        C238   1.274       .  A
O227        C239   1.275       .  A
O228        C237   1.272       .  A
O229        C239   1.274       .  A
O230        C238   1.272       .  A
O231        C240   1.273       .  A
O232        C241   1.273       .  A
O233        C240   1.274       .  A
O234        C241   1.273       .  A
O235        C242   1.274       .  A
O236        C242   1.273       .  A
C237        C506   1.484       .  S
C238        C493   1.471       .  S
C239        C541   1.484       .  S
C240        C394   1.478       .  S
C241        C410   1.472       .  S
C242        C426   1.484       .  S
N243        C248   1.352       .  A
N243        C247   1.351       .  A
N243        H275   1.041       .  S
N244        C252   1.348       .  A
N244       C1803   1.347       .  A
N245        C250   1.350       .  A
N245        C249   1.352       .  A
N245        H276   1.041       .  S
N246        C254   1.347       .  A
N246       C1805   1.349       .  A
C247        C255   1.386       .  A
C247        C263   1.410       .  A
C248        C264   1.410       .  A
C248        C256   1.385       .  A
C249        C257   1.386       .  A
C249        C266   1.411       .  A
C250        C265   1.411       .  A
C250        C258   1.386       .  A
C251       N1796   1.347       .  A
C251        C263   1.407       .  A
C251        C259   1.386       .  A
C252        C266   1.408       .  A
C252        C260   1.386       .  A
C253       N1798   1.350       .  A
C253        C261   1.385       .  A
C253        C264   1.410       .  A
C254        C262   1.387       .  A
C254        C265   1.408       .  A
C255        C256   1.378       .  A
C255        H267   1.082       .  S
C256        H268   1.082       .  S
C257        C258   1.380       .  A
C257        H269   1.082       .  S
C258        H270   1.082       .  S
C259       C1812   1.376   1_455  A
C259        H271   1.082       .  S
C260       C1811   1.376       .  A
C260        H272   1.081       .  S
C261       C1814   1.378   1_455  A
C261        H273   1.082       .  S
C262       C1813   1.376       .  A
C262        H274   1.082       .  S
C263        C364   1.481       .  S
C264        C372   1.490       .  S
C265        C356   1.482       .  S
C266        C314   1.485       .  S
N277        C282   1.352       .  A
N277        C281   1.352       .  A
N277        H309   1.041       .  S
N278        C285   1.349       .  A
N278        C286   1.348       .  A
N279        C284   1.353       .  A
N279        C283   1.352       .  A
N279        H310   1.042       .  S
N280        C287   1.351       .  A
N280        C288   1.352       .  A
C281        C289   1.386       .  A
C281        C297   1.413       .  A
C282        C298   1.413       .  A
C282        C290   1.386       .  A
C283        C291   1.386       .  A
C283        C300   1.413       .  A
C284        C299   1.412       .  A
C284        C292   1.385       .  A
C285        C297   1.410       .  A
C285        C293   1.386       .  A
C286        C300   1.410       .  A
C286        C294   1.386       .  A
C287        C295   1.386       .  A
C287        C298   1.414       .  A
C288        C296   1.385       .  A
C288        C299   1.414       .  A
C289        C290   1.379       .  A
C289        H301   1.082       .  S
C290        H302   1.082       .  S
C291        C292   1.379       .  A
C291        H303   1.081       .  S
C292        H304   1.082       .  S
C293        C294   1.377       .  A
C293        H305   1.082       .  S
C294        H306   1.082       .  S
C295        C296   1.378       .  A
C295        H307   1.081       .  S
C296        H308   1.081       .  S
C297        C389   1.488       .  S
C298        C381   1.493       .  S
C299        C315   1.496       .  S
C300        C357   1.487       .  S
C311        C477   1.484       .  S
C311        C316   1.408       .  A
C311       C1088   1.420       .  A
C312        C605   1.488       .  S
C312        C313   1.404       .  A
C312       C1087   1.415   1_545  A
C313        C314   1.403       .  A
C313        H318   1.084       .  S
C314       C1091   1.416   1_545  A
C315        C316   1.403       .  A
C315       C1090   1.415       .  A
C316        H317   1.084       .  S
N319        C324   1.349       .  A
N319        C323   1.349       .  A
N319        H351   1.041       .  S
N320        C328   1.347       .  A
N320       C1103   1.348   1_545  A
N321        C326   1.350       .  A
N321        C325   1.351       .  A
N321        H352   1.041       .  S
N322        C330   1.349   1_565  A
N322       C1105   1.349       .  A
C323        C331   1.386       .  A
C323        C339   1.408       .  A
C324        C340   1.407       .  A
C324        C332   1.385       .  A
C325        C333   1.386       .  A
C325        C342   1.410       .  A
C326        C341   1.410       .  A
C326        C334   1.386       .  A
C327       N1096   1.346       .  A
C327        C339   1.407       .  A
C327        C335   1.386       .  A
C328        C342   1.408       .  A
C328        C336   1.386       .  A
C329       N1098   1.348       .  A
C329        C337   1.386       .  A
C329        C340   1.409       .  A
C330        C338   1.386       .  A
C330        C341   1.410       .  A
C331        C332   1.378       .  A
C331        H343   1.082       .  S
C332        H344   1.082       .  S
C333        C334   1.379       .  A
C333        H345   1.082       .  S
C334        H346   1.081       .  S
C335       C1112   1.377       .  A
C335        H347   1.081       .  S
C336       C1111   1.376   1_545  A
C336        H348   1.082       .  S
C337       C1114   1.378       .  A
C337        H349   1.082       .  S
C338       C1113   1.378   1_545  A
C338        H350   1.082       .  S
C339        C388   1.478       .  S
C340        C380   1.483       .  S
C341        C365   1.485       .  S
C342        C373   1.482       .  S
C353        C429   1.485       .  S
C353        C358   1.402       .  A
C353       C1130   1.415       .  A
C354        C730   1.488       .  S
C354        C355   1.403       .  A
C354       C1129   1.416   1_545  A
C355        C356   1.401       .  A
C355        H360   1.084       .  S
C356       C1133   1.414   1_545  A
C357        C358   1.400       .  A
C357       C1132   1.414       .  A
C358        H359   1.084       .  S
C361        C650   1.475       .  S
C361        C362   1.413       .  A
C361        C366   1.403       .  A
C362        C442   1.483       .  S
C362        C363   1.400       .  A
C363        C364   1.399       .  A
C363        H368   1.084       .  S
C364        C365   1.414       .  A
C365        C366   1.398       .  A
C366        H367   1.084       .  S
C369        C701   1.484       .  S
C369        C370   1.415       .  A
C369        C374   1.401       .  A
C370        C397   1.480       .  S
C370        C371   1.405       .  A
C371        C372   1.401       .  A
C371        H376   1.084       .  S
C372        C373   1.415       .  A
C373        C374   1.399       .  A
C374        H375   1.084       .  S
C377        C637   1.480       .  S
C377        C382   1.406       .  A
C377       C1930   1.416       .  A
C378        C458   1.494       .  S
C378        C379   1.403       .  A
C378       C1929   1.420   1_455  A
C379        C380   1.401       .  A
C379        H384   1.084       .  S
C380       C1933   1.415   1_455  A
C381        C382   1.402       .  A
C381       C1932   1.416       .  A
C382        H383   1.084       .  S
C385        C746   1.481       .  S
C385        C390   1.404       .  A
C385       C1938   1.415       .  A
C386        C413   1.489       .  S
C386        C387   1.402       .  A
C386       C1937   1.417   1_455  A
C387        C388   1.399       .  A
C387        H392   1.084       .  S
C388       C1941   1.413   1_455  A
C389        C390   1.401       .  A
C389       C1940   1.414       .  A
C390        H391   1.084       .  S
C393        C394   1.404       .  A
C393        C398   1.405       .  A
C393        H400   1.085       .  S
C394        C395   1.415       .  A
C395        C396   1.405       .  A
C395        C402   1.518       .  S
C396        C397   1.402       .  A
C396        H401   1.081       .  S
C397        C398   1.419       .  A
C398        C399   1.520       .  S
C399        F403   1.383       .  S
C399        F404   1.383       .  S
C399        F405   1.381       .  S
C402        F406   1.382       .  S
C402        F407   1.383       .  S
C402        F408   1.385       .  S
C409        C410   1.400       .  A
C409        C414   1.405       .  A
C409        H416   1.085       .  S
C410        C411   1.410       .  A
C411        C412   1.407       .  A
C411        C418   1.517       .  S
C412        C413   1.408       .  A
C412        H417   1.080       .  S
C413        C414   1.422       .  A
C414       C1967   1.522       .  S
C415       C1966   1.519       .  S
C415        F419   1.382       .  S
C415        F420   1.384       .  S
C415        F421   1.379       .  S
C418        F422   1.383       .  S
C418        F423   1.383       .  S
C418        F424   1.384       .  S
C425        C426   1.405       .  A
C425        C430   1.406       .  A
C425        H432   1.083       .  S
C426        C427   1.422       .  A
C427        C428   1.407       .  A
C427        C434   1.521       .  S
C428        C429   1.400       .  A
C428        H433   1.079       .  S
C429        C430   1.415       .  A
C430        C431   1.519       .  S
C431        F435   1.384       .  S
C431        F436   1.380       .  S
C431        F437   1.381       .  S
C434        F438   1.383   1_554  S
C434        F439   1.383       .  S
C434        F440   1.384       .  S
C441        C442   1.403       .  A
C441        C446   1.406       .  A
C441        H448   1.082       .  S
C442        C443   1.417       .  A
C443        C444   1.406       .  A
C443        C450   1.521       .  S
C444        C445   1.402       .  A
C444        H449   1.081       .  S
C445        C446   1.414       .  A
C446        C447   1.518       .  S
C447        F451   1.384       .  S
C447        F452   1.384       .  S
C447        F453   1.382       .  S
C450        F454   1.385       .  S
C450        F455   1.381       .  S
C450        F456   1.381       .  S
C457        C458   1.405       .  A
C457        C462   1.411       .  A
C457        H464   1.082       .  S
C458        C459   1.419       .  A
C459        C460   1.408       .  A
C459        C466   1.519       .  S
C460        C461   1.402       .  A
C460        H465   1.083       .  S
C461        C462   1.416       .  A
C462        C463   1.517       .  S
C463        F467   1.385       .  S
C463        F468   1.383       .  S
C463        F469   1.382       .  S
C466        F470   1.377       .  S
C466        F471   1.381       .  S
C466        F472   1.385       .  S
C473        C474   1.403       .  A
C473        C478   1.407       .  A
C473        H480   1.085       .  S
C474        C475   1.413       .  A
C475        C476   1.405       .  A
C475        C482   1.518       .  S
C476        C477   1.404       .  A
C476        H481   1.082       .  S
C477        C478   1.420       .  A
C478        C479   1.519       .  S
C479        F483   1.383       .  S
C479        F484   1.380       .  S
C479        F485   1.383       .  S
C482        F486   1.384       .  S
C482        F487   1.382       .  S
C482       F1264   1.384       .  S
F488       C1258   1.385       .  S
C489        C490   1.403       .  A
C489        C494   1.406       .  A
C489        H496   1.083       .  S
C490        C491   1.416       .  A
C491        C492   1.404       .  A
C491        C498   1.516       .  S
C492        C493   1.401       .  A
C492        H497   1.084       .  S
C493        C494   1.414       .  A
C494        C495   1.518       .  S
C495        F499   1.384       .  S
C495        F500   1.384       .  S
C495        F501   1.382       .  S
C498        F502   1.385       .  S
C498        F503   1.382       .  S
C498        F504   1.376       .  S
C505        C506   1.406       .  A
C505        C510   1.406       .  A
C505        H512   1.083       .  S
C506        C507   1.419       .  A
C507        C508   1.407       .  A
C507        C514   1.519       .  S
C508        C509   1.402       .  A
C508        H513   1.080       .  S
C509        C510   1.417       .  A
C510        C511   1.522       .  S
C511        F515   1.382       .  S
C511       F1292   1.383       .  S
C511       F1293   1.385       .  S
C514        F518   1.384       .  S
C514        F519   1.383       .  S
C514        F520   1.384       .  S
F516       C1287   1.382       .  S
F517       C1287   1.385       .  S
C521        C522   1.406       .  A
C521        C526   1.403       .  A
C521        H528   1.083       .  S
C522        C523   1.420       .  A
C523        C524   1.408       .  A
C523        C530   1.519       .  S
C524        C525   1.403       .  A
C524        H529   1.082       .  S
C525        C526   1.415       .  A
C526        C527   1.521       .  S
C527        F531   1.382       .  S
C527        F532   1.385       .  S
C527        F533   1.382       .  S
C530        F534   1.383       .  S
C530        F535   1.383       .  S
C530        F536   1.385       .  S
C537        C538   1.403       .  A
C537        C542   1.408       .  A
C537        H544   1.078       .  S
C538        C539   1.418       .  A
C539        C540   1.404       .  A
C539        C546   1.521       .  S
C540        C541   1.404       .  A
C540        H545   1.084       .  S
C541        C542   1.418       .  A
C542        C543   1.519       .  S
C543        F547   1.385       .  S
C543        F548   1.384       .  S
C543        F549   1.382       .  S
C546        F550   1.382       .  S
C546        F551   1.384       .  S
C546        F552   1.383       .  S
C553        C554   1.405       .  A
C553        C558   1.410       .  A
C553        H560   1.083       .  S
C554        C555   1.418       .  A
C555        C556   1.405       .  A
C555        C562   1.519       .  S
C556        C557   1.402       .  A
C556        H561   1.085       .  S
C557        C558   1.415       .  A
C558        C559   1.518       .  S
C559        F563   1.384       .  S
C559        F564   1.383       .  S
C559        F565   1.384       .  S
C562        F567   1.384       .  S
C562        F568   1.382       .  S
C562       F1342   1.380       .  S
F566       C1338   1.378       .  S
C569        C570   1.401       .  A
C569        C574   1.402       .  A
C569        H576   1.080       .  S
C570        C571   1.420       .  A
C571        C572   1.409       .  A
C571       C2130   1.521       .  S
C572        C573   1.401       .  A
C572        H577   1.083       .  S
C573        C574   1.413       .  A
C574        C575   1.517       .  S
C575        F579   1.384       .  S
C575        F580   1.381       .  S
C575        F581   1.383       .  S
C578       C2123   1.521       .  S
C578        F582   1.382       .  S
C578        F583   1.381       .  S
C578        F584   1.385       .  S
C585        C586   1.404       .  A
C585        C590   1.403       .  A
C585        H592   1.083       .  S
C586        C587   1.418       .  A
C587        C588   1.407       .  A
C587        C594   1.520       .  S
C588        C589   1.403       .  A
C588        H593   1.079       .  S
C589        C590   1.416       .  A
C590       C2143   1.522       .  S
C591       C2142   1.522       .  S
C591        F595   1.381       .  S
C591        F596   1.382       .  S
C591        F597   1.385       .  S
C594        F598   1.384       .  S
C594        F599   1.382       .  S
C594        F600   1.385       .  S
C601        C602   1.401       .  A
C601        C606   1.406       .  A
C601        H608   1.085       .  S
C602        C603   1.415       .  A
C603        C604   1.409       .  A
C603        C610   1.518       .  S
C604        C605   1.406       .  A
C604        H609   1.082       .  S
C605        C606   1.422       .  A
C606        C607   1.519       .  S
C607        F611   1.383       .  S
C607        F612   1.379       .  S
C607        F613   1.383       .  S
C610        F614   1.382       .  S
C610        F615   1.383       .  S
C610        F616   1.385       .  S
C617        C618   1.406       .  A
C617        C622   1.406       .  A
C617        H624   1.082       .  S
C618        C619   1.418       .  A
C619        C620   1.408       .  A
C619        C626   1.519       .  S
C620        C621   1.403       .  A
C620        H625   1.081       .  S
C621        C622   1.418       .  A
C622        C623   1.521       .  S
C623        F627   1.378       .  S
C623        F628   1.384       .  S
C623        F629   1.381       .  S
C626        F630   1.384       .  S
C626        F631   1.382       .  S
C626        F632   1.385       .  S
C633        C634   1.401       .  A
C633        C638   1.402       .  A
C633        H640   1.084       .  S
C634        C635   1.416       .  A
C635        C636   1.408       .  A
C635        C642   1.519       .  S
C636        C637   1.404       .  A
C636        H641   1.083       .  S
C637        C638   1.417       .  A
C638        C639   1.518       .  S
C639        F643   1.382       .  S
C639        F644   1.384       .  S
C639        F645   1.379       .  S
C642        F646   1.382       .  S
C642        F647   1.384       .  S
C642       F2200   1.385       .  S
F648       C2194   1.385       .  S
C649        C650   1.399       .  A
C649        C654   1.403       .  A
C649        H656   1.080       .  S
C650        C651   1.417       .  A
C651        C652   1.402       .  A
C651        C658   1.520       .  S
C652        C653   1.403       .  A
C652        H657   1.085       .  S
C653        C654   1.420       .  A
C654        C655   1.521       .  S
C655        F659   1.385       .  S
C655        F660   1.383       .  S
C655        F661   1.384       .  S
C658        F662   1.381       .  S
C658        F663   1.383       .  S
C658        F664   1.383       .  S
C665        C666   1.402       .  A
C665        C670   1.405       .  A
C665        H672   1.082       .  S
C666        C667   1.420       .  A
C667        C668   1.405       .  A
C667        C674   1.520       .  S
C668        C669   1.401       .  A
C668        H673   1.085       .  S
C669        C670   1.415       .  A
C670        C671   1.518       .  S
C671        F675   1.385       .  S
C671        F676   1.383       .  S
C671        F677   1.382       .  S
C674        F678   1.383       .  S
C674        F679   1.381       .  S
C674        F680   1.384       .  S
C681        C682   1.401       .  A
C681        C686   1.406       .  A
C681        H688   1.084       .  S
C682        C683   1.416       .  A
C683        C684   1.402       .  A
C683        C690   1.517       .  S
C684        C685   1.402       .  A
C684        H689   1.082       .  S
C685        C686   1.420       .  A
C686        C687   1.520       .  S
C687        F691   1.385       .  S
C687        F692   1.382       .  S
C687        F693   1.384       .  S
C690        F694   1.383       .  S
C690        F695   1.382       .  S
C690        F696   1.384       .  S
C697        C698   1.406       .  A
C697        C702   1.406       .  A
C697        H704   1.083       .  S
C698        C699   1.423       .  A
C699        C700   1.406       .  A
C699        C706   1.519       .  S
C700        C701   1.400       .  A
C700        H705   1.081       .  S
C701        C702   1.416       .  A
C702        C703   1.520       .  S
C703        F707   1.381       .  S
C703        F708   1.381       .  S
C703        F709   1.385       .  S
C706        F710   1.381       .  S
C706        F711   1.383       .  S
C706        F712   1.385       .  S
C713        C714   1.402       .  A
C713        C718   1.401       .  A
C713        H720   1.085       .  S
C714        C715   1.414       .  A
C715        C716   1.407       .  A
C715        C722   1.518       .  S
C716        C717   1.405       .  A
C716        H721   1.083       .  S
C717        C718   1.416       .  A
C718       C2271   1.519       .  S
C719       C2270   1.521       .  S
C719        F723   1.383       .  S
C719        F724   1.384       .  S
C719        F725   1.379       .  S
C722        F726   1.382       .  S
C722        F727   1.384       .  S
C722        F728   1.385       .  S
C729        C730   1.404       .  A
C729        C734   1.407       .  A
C729        H736   1.080       .  S
C730        C731   1.419       .  A
C731        C732   1.409       .  A
C731        C738   1.522       .  S
C732        C733   1.403       .  A
C732        H737   1.083       .  S
C733        C734   1.413       .  A
C734        C735   1.517       .  S
C735        F739   1.384       .  S
C735        F740   1.384       .  S
C735        F741   1.382       .  S
C738        F742   1.381       .  S
C738        F743   1.381       .  S
C738        F744   1.385       .  S
C745        C746   1.405       .  A
C745        C750   1.407       .  A
C745        H752   1.083       .  S
C746        C747   1.420       .  A
C747        C748   1.403       .  A
C747        C754   1.519       .  S
C748        C749   1.401       .  A
C748        H753   1.084       .  S
C749        C750   1.414       .  A
C750        C751   1.517       .  S
C751        F755   1.385       .  S
C751        F756   1.383       .  S
C751        F757   1.382       .  S
C754        F758   1.379       .  S
C754        F759   1.383       .  S
C754        F760   1.384       .  S
C761        C762   1.400       .  A
C761        C766   1.403       .  A
C761        H768   1.083       .  S
C762        C763   1.418       .  A
C763        C764   1.408       .  A
C763        C770   1.521       .  S
C764        C765   1.402       .  A
C764        H769   1.083       .  S
C765        C766   1.416       .  A
C766        C767   1.517       .  S
C767        F771   1.385       .  S
C767        F772   1.382       .  S
C767        F773   1.383       .  S
C770        F774   1.381       .  S
C770        F775   1.380       .  S
C770        F776   1.385       .  S
Zn777       O781   1.945   1_554  S
Zn777       O782   2.002       .  S
Zn777       O786   1.999       .  S
Zn777       O793   2.018       .  S
Zn778       O781   1.959       .  S
Zn778       O783   2.050       .  S
Zn778       O785   2.027   1_556  S
Zn778       O789   1.998       .  S
Zn779       O781   1.951       .  S
Zn779       O784   2.014   1_556  S
Zn779       O787   2.010       .  S
Zn779       O790   2.019       .  S
Zn780       O781   1.953       .  S
Zn780       O788   2.012       .  S
Zn780       O791   2.025       .  S
Zn780       O792   2.029   1_556  S
O782        C794   1.271       .  A
O783        C795   1.276       .  A
O784        C796   1.274       .  A
O785        C794   1.274       .  A
O786        C796   1.270       .  A
O787        C795   1.274       .  A
O788        C797   1.273       .  A
O789        C798   1.272       .  A
O790        C797   1.273       .  A
O791        C798   1.274       .  A
O792        C799   1.272       .  A
O793        C799   1.274       .  A
C794       C1525   1.472       .  S
C795       C1490   1.497       .  S
C796       C1509   1.480       .  S
C797       C1458   1.467       .  S
C798       C1541   1.467       .  S
C799       C1474   1.499       .  S
Zn800       O804   1.952       .  S
Zn800       O805   2.012       .  S
Zn800       O809   2.021       .  S
Zn800       O816   2.017       .  S
Zn801       O804   1.957       .  S
Zn801       O806   2.032       .  S
Zn801       O808   2.024       .  S
Zn801       O812   2.039       .  S
Zn802       O804   1.952       .  S
Zn802       O807   2.011       .  S
Zn802       O810   2.026       .  S
Zn802       O813   1.994       .  S
Zn803       O804   1.962       .  S
Zn803       O811   2.040       .  S
Zn803       O814   2.013       .  S
Zn803       O815   2.034       .  S
O805        C817   1.273       .  A
O806        C818   1.274       .  A
O807        C819   1.271       .  A
O808        C817   1.275       .  A
O809        C819   1.275       .  A
O810        C818   1.273       .  A
O811        C820   1.276       .  A
O812        C821   1.276       .  A
O813        C820   1.273       .  A
O814        C821   1.274       .  A
O815        C822   1.275       .  A
O816        C822   1.273       .  A
C817       C1410   1.473       .  S
C818       C1445   1.478       .  S
C819       C1429   1.484       .  S
C820       C1394   1.486       .  S
C821       C1362   1.488       .  S
C822       C1378   1.479       .  S
N823        C828   1.350       .  A
N823        C827   1.349       .  A
N823        H855   1.042       .  S
N824        C832   1.348       .  A
N825        C830   1.349       .  A
N825        C829   1.350       .  A
N825        H856   1.042       .  S
N826        C834   1.348       .  A
C827        C835   1.386       .  A
C827        C843   1.408       .  A
C828        C844   1.408       .  A
C828        C836   1.385       .  A
C829        C837   1.385       .  A
C829        C846   1.407       .  A
C830        C845   1.408       .  A
C830        C838   1.386       .  A
C831        C843   1.409       .  A
C831        C839   1.386       .  A
C832        C846   1.409       .  A
C832        C840   1.385       .  A
C833        C841   1.386       .  A
C833        C844   1.410       .  A
C834        C842   1.386       .  A
C834        C845   1.409       .  A
C835        C836   1.377       .  A
C835        H847   1.082       .  S
C836        H848   1.082       .  S
C837        C838   1.377       .  A
C837        H849   1.082       .  S
C838        H850   1.082       .  S
C839        H851   1.081       .  S
C840        H852   1.081       .  S
C841        H853   1.082       .  S
C842        H854   1.082       .  S
C843        C945   1.481       .  S
C844        C952   1.485       .  S
C845        C929   1.481       .  S
C846        C969   1.484       .  S
N857        C862   1.352       .  A
N857        C861   1.353       .  A
N857        H889   1.041       .  S
N858        C865   1.351       .  A
N858        C866   1.351       .  A
N859        C864   1.353       .  A
N859        C863   1.352       .  A
N859        H890   1.041       .  S
N860        C867   1.350       .  A
N860        C868   1.351       .  A
C861        C869   1.386       .  A
C861        C877   1.413       .  A
C862        C878   1.413       .  A
C862        C870   1.386       .  A
C863        C871   1.386       .  A
C863        C880   1.413       .  A
C864        C879   1.413       .  A
C864        C872   1.386       .  A
C865        C877   1.413       .  A
C865        C873   1.385       .  A
C866        C880   1.414       .  A
C866        C874   1.386       .  A
C867        C875   1.386       .  A
C867        C878   1.413       .  A
C868        C876   1.385       .  A
C868        C879   1.413       .  A
C869        C870   1.379       .  A
C869        H881   1.082       .  S
C870        H882   1.082       .  S
C871        C872   1.379       .  A
C871        H883   1.082       .  S
C872        H884   1.082       .  S
C873        C874   1.379       .  A
C873        H885   1.082       .  S
C874        H886   1.081       .  S
C875        C876   1.379       .  A
C875        H887   1.081       .  S
C876        H888   1.082       .  S
C877        C960   1.494       .  S
C878        C936   1.491       .  S
C879        C928   1.493       .  S
C880        C968   1.492       .  S
N891        C896   1.351       .  A
N891        C895   1.350       .  A
N891        H923   1.041       .  S
N892       C2451   1.349       .  A
N892        C900   1.348   1_655  A
N893        C898   1.351       .  A
N893        C897   1.349       .  A
N893        H924   1.041       .  S
N894       C2453   1.347       .  A
N894        C902   1.349   1_655  A
C895        C903   1.386       .  A
C895        C911   1.410       .  A
C896        C912   1.410       .  A
C896        C904   1.385       .  A
C897        C905   1.387       .  A
C897        C914   1.409       .  A
C898        C913   1.408       .  A
C898        C906   1.385       .  A
C899       N2444   1.348       .  A
C899        C911   1.410       .  A
C899        C907   1.386       .  A
C900        C914   1.410       .  A
C900        C908   1.387       .  A
C901       N2446   1.347       .  A
C901        C909   1.385       .  A
C901        C912   1.406       .  A
C902        C910   1.385       .  A
C902        C913   1.408       .  A
C903        C904   1.377       .  A
C903        H915   1.082       .  S
C904        H916   1.081       .  S
C905        C906   1.378       .  A
C905        H917   1.082       .  S
C906        H918   1.082       .  S
C907       C2460   1.379       .  A
C907        H919   1.082       .  S
C908       C2459   1.379   1_455  A
C908        H920   1.082       .  S
C909       C2462   1.377       .  A
C909        H921   1.082       .  S
C910       C2461   1.376   1_455  A
C910        H922   1.081       .  S
C911        C944   1.485       .  S
C912        C953   1.483       .  S
C913        C937   1.486       .  S
C914        C961   1.481       .  S
C925       C1365   1.489       .  S
C925       C2478   1.417       .  A
C925        C930   1.400       .  A
C926       C1346   1.479       .  S
C926       C2477   1.414   1_455  A
C926        C927   1.407       .  A
C927        C928   1.402       .  A
C927        H932   1.084       .  S
C928       C2481   1.415   1_455  A
C929       C2480   1.413       .  A
C929        C930   1.397       .  A
C930        H931   1.084       .  S
C933       C1330   1.487       .  S
C933        C938   1.405       .  A
C934       C1397   1.485       .  S
C934        C935   1.407       .  A
C935        C936   1.402       .  A
C935        H940   1.084       .  S
C937        C938   1.401       .  A
C938        H939   1.084       .  S
C941       C1314   1.487       .  S
C941        C942   1.416       .  A
C941        C946   1.404       .  A
C942       C1538   1.479       .  S
C942        C943   1.402       .  A
C943        C944   1.397       .  A
C943        H948   1.084       .  S
C944        C945   1.413       .  A
C945        C946   1.399       .  A
C946        H947   1.084       .  S
C949       C1442   1.486       .  S
C949        C950   1.416       .  A
C949        C954   1.405       .  A
C950       C1301   1.480       .  S
C950        C951   1.402       .  A
C951        C952   1.395       .  A
C951        H956   1.084       .  S
C952        C953   1.412       .  A
C953        C954   1.401       .  A
C954        H955   1.084       .  S
C957       C1285   1.486       .  S
C957        C962   1.401       .  A
C958       C1461   1.485       .  S
C958        C959   1.408       .  A
C959        C960   1.401       .  A
C959        H964   1.083       .  S
C961        C962   1.397       .  A
C962        H963   1.084       .  S
C965       C1493   1.494       .  S
C965       C2518   1.421       .  A
C965        C970   1.406       .  A
C966       C1266   1.485       .  S
C966       C2517   1.416   1_455  A
C966        C967   1.407       .  A
C967        C968   1.403       .  A
C967        H972   1.084       .  S
C968       C2521   1.416   1_455  A
C969       C2520   1.413       .  A
C969        C970   1.401       .  A
C970        H971   1.084       .  S
Zn973       O977   1.952       .  S
Zn973       O978   2.004       .  S
Zn973       O982   2.033       .  S
Zn973       O989   2.024       .  S
Zn974       O977   1.954       .  S
Zn974       O979   1.990       .  S
Zn974       O981   2.020       .  S
Zn974       O985   2.011       .  S
Zn975       O977   1.952       .  S
Zn975       O980   2.012       .  S
Zn975       O983   2.041       .  S
Zn975       O986   2.038       .  S
Zn976       O977   1.942       .  S
Zn976       O984   2.007       .  S
Zn976       O987   2.004       .  S
Zn976       O988   1.996       .  S
O978        C990   1.273       .  A
O979        C991   1.270       .  A
O980        C992   1.274       .  A
O981        C990   1.272       .  A
O982        C992   1.275       .  A
O983        C991   1.277       .  A
O984        C993   1.271       .  A
O985        C994   1.272       .  A
O986        C993   1.276       .  A
O987        C994   1.271       .  A
O988        C995   1.271       .  A
O989        C995   1.275       .  A
C990       C1298   1.483       .  S
C991       C1349   1.472       .  S
C992       C1333   1.484       .  S
C993       C1237   1.482       .  S
C994       C1221   1.475       .  S
C995       C1250   1.475       .  S
Zn996      O1000   1.954   1_556  S
Zn996      O1001   2.025       .  S
Zn996      O1005   1.998       .  S
Zn996      O1012   2.016   1_556  S
Zn997      O1000   1.947   1_556  S
Zn997      O1002   2.033       .  S
Zn997      O1004   2.006       .  S
Zn997      O1008   2.028   1_556  S
Zn998      O1000   1.956   1_556  S
Zn998      O1003   2.028       .  S
Zn998      O1006   2.001       .  S
Zn998      O1009   2.009   1_556  S
Zn999      O1000   1.949       .  S
Zn999      O1007   2.011       .  S
Zn999      O1010   2.026       .  S
Zn999      O1011   2.011       .  S
O1001      C1013   1.273       .  A
O1002      C1014   1.275       .  A
O1003      C1015   1.273       .  A
O1004      C1013   1.274       .  A
O1005      C1015   1.273       .  A
O1006      C1014   1.272       .  A
O1007      C1016   1.272       .  A
O1008      C1017   1.275       .  A
O1009      C1016   1.272       .  A
O1010      C1017   1.274       .  A
O1011      C1018   1.275       .  A
O1012      C1018   1.272       .  A
C1013      C1282   1.487       .  S
C1014      C1269   1.483       .  S
C1015      C1317   1.485       .  S
C1016      C1170   1.468       .  S
C1017      C1186   1.480       .  S
C1018      C1202   1.489       .  S
N1019      C1024   1.350       .  A
N1019      C1023   1.350       .  A
N1019      H1051   1.041       .  S
N1020      C2579   1.348       .  A
N1020      C1028   1.347       .  A
N1021      C1026   1.351       .  A
N1021      C1025   1.351       .  A
N1021      H1052   1.041       .  S
N1022      C2581   1.348       .  A
N1022      C1030   1.348       .  A
C1023      C1031   1.387       .  A
C1023      C1039   1.410       .  A
C1024      C1040   1.408       .  A
C1024      C1032   1.385       .  A
C1025      C1033   1.386       .  A
C1025      C1042   1.411       .  A
C1026      C1041   1.411       .  A
C1026      C1034   1.386       .  A
C1027      N2572   1.348   1_455  A
C1027      C1039   1.408       .  A
C1027      C1035   1.385       .  A
C1028      C1042   1.408       .  A
C1028      C1036   1.387       .  A
C1029      N2574   1.348       .  A
C1029      C1037   1.386       .  A
C1029      C1040   1.408       .  A
C1030      C1038   1.386       .  A
C1030      C1041   1.409       .  A
C1031      C1032   1.379       .  A
C1031      H1043   1.082       .  S
C1032      H1044   1.082       .  S
C1033      C1034   1.381       .  A
C1033      H1045   1.082       .  S
C1034      H1046   1.082       .  S
C1035      C2588   1.378   1_455  A
C1035      H1047   1.082       .  S
C1036      C2587   1.376       .  A
C1036      H1048   1.082       .  S
C1037      C2590   1.377   1_455  A
C1037      H1049   1.082       .  S
C1038      C2589   1.377       .  A
C1038      H1050   1.082       .  S
C1039      C1140   1.483       .  S
C1040      C1148   1.484       .  S
C1041      C1132   1.485       .  S
C1042      C1090   1.483       .  S
N1053      C1058   1.352       .  A
N1053      C1057   1.352       .  A
N1053      H1085   1.041       .  S
N1054      C1061   1.349       .  A
N1054      C1062   1.349       .  A
N1055      C1060   1.352       .  A
N1055      C1059   1.352       .  A
N1055      H1086   1.042       .  S
N1056      C1063   1.351       .  A
N1056      C1064   1.351       .  A
C1057      C1065   1.386       .  A
C1057      C1073   1.413       .  A
C1058      C1074   1.413       .  A
C1058      C1066   1.386       .  A
C1059      C1067   1.385       .  A
C1059      C1076   1.412       .  A
C1060      C1075   1.412       .  A
C1060      C1068   1.386       .  A
C1061      C1073   1.410       .  A
C1061      C1069   1.386       .  A
C1062      C1076   1.410       .  A
C1062      C1070   1.385       .  A
C1063      C1071   1.386       .  A
C1063      C1074   1.413       .  A
C1064      C1072   1.385       .  A
C1064      C1075   1.413       .  A
C1065      C1066   1.380       .  A
C1065      H1077   1.082       .  S
C1066      H1078   1.082       .  S
C1067      C1068   1.379       .  A
C1067      H1079   1.082       .  S
C1068      H1080   1.082       .  S
C1069      C1070   1.377       .  A
C1069      H1081   1.081       .  S
C1070      H1082   1.082       .  S
C1071      C1072   1.378       .  A
C1071      H1083   1.081       .  S
C1072      H1084   1.081       .  S
C1073      C1165   1.488       .  S
C1074      C1157   1.493       .  S
C1075      C1091   1.492       .  S
C1076      C1133   1.489       .  S
C1087      C1253   1.479       .  S
C1087      C1092   1.405       .  A
C1088      C1381   1.492       .  S
C1088      C1089   1.402       .  A
C1089      C1090   1.401       .  A
C1089      H1094   1.084       .  S
C1091      C1092   1.402       .  A
C1092      H1093   1.084       .  S
N1095      C1100   1.350       .  A
N1095      C1099   1.350       .  A
N1095      H1127   1.042       .  S
N1096      C1104   1.347       .  A
N1097      C1102   1.350       .  A
N1097      C1101   1.351       .  A
N1097      H1128   1.041       .  S
N1098      C1106   1.348       .  A
C1099      C1107   1.386       .  A
C1099      C1115   1.408       .  A
C1100      C1116   1.408       .  A
C1100      C1108   1.386       .  A
C1101      C1109   1.385       .  A
C1101      C1118   1.409       .  A
C1102      C1117   1.410       .  A
C1102      C1110   1.386       .  A
C1103      C1115   1.407       .  A
C1103      C1111   1.385       .  A
C1104      C1118   1.406       .  A
C1104      C1112   1.385       .  A
C1105      C1113   1.385       .  A
C1105      C1116   1.410       .  A
C1106      C1114   1.386       .  A
C1106      C1117   1.409       .  A
C1107      C1108   1.377       .  A
C1107      H1119   1.082       .  S
C1108      H1120   1.082       .  S
C1109      C1110   1.377       .  A
C1109      H1121   1.082       .  S
C1110      H1122   1.081       .  S
C1111      H1123   1.082       .  S
C1112      H1124   1.082       .  S
C1113      H1125   1.081       .  S
C1114      H1126   1.082       .  S
C1115      C1164   1.482       .  S
C1116      C1156   1.484       .  S
C1117      C1141   1.483       .  S
C1118      C1149   1.483       .  S
C1129      C1205   1.480       .  S
C1129      C1134   1.403       .  A
C1130      C1506   1.480       .  S
C1130      C1131   1.403       .  A
C1131      C1132   1.400       .  A
C1131      H1136   1.084       .  S
C1133      C1134   1.398       .  A
C1134      H1135   1.084       .  S
C1137      C1426   1.483       .  S
C1137      C1138   1.414       .  A
C1137      C1142   1.402       .  A
C1138      C1218   1.475       .  S
C1138      C1139   1.400       .  A
C1139      C1140   1.397       .  A
C1139      H1144   1.085       .  S
C1140      C1141   1.414       .  A
C1141      C1142   1.400       .  A
C1142      H1143   1.084       .  S
C1145      C1477   1.490       .  S
C1145      C1146   1.417       .  A
C1145      C1150   1.403       .  A
C1146      C1173   1.478       .  S
C1146      C1147   1.402       .  A
C1147      C1148   1.396       .  A
C1147      H1152   1.084       .  S
C1148      C1149   1.412       .  A
C1149      C1150   1.400       .  A
C1150      H1151   1.084       .  S
C1153      C1413   1.484       .  S
C1153      C2706   1.420       .  A
C1153      C1158   1.407       .  A
C1154      C1234   1.488       .  S
C1154      C2705   1.418   1_455  A
C1154      C1155   1.402       .  A
C1155      C1156   1.400       .  A
C1155      H1160   1.084       .  S
C1156      C2709   1.415   1_455  A
C1157      C2708   1.415       .  A
C1157      C1158   1.401       .  A
C1158      H1159   1.084       .  S
C1161      C1522   1.484       .  S
C1161      C2714   1.417       .  A
C1161      C1166   1.406       .  A
C1162      C1189   1.484       .  S
C1162      C2713   1.415   1_455  A
C1162      C1163   1.401       .  A
C1163      C1164   1.400       .  A
C1163      H1168   1.084       .  S
C1164      C2717   1.415   1_455  A
C1165      C2716   1.413       .  A
C1165      C1166   1.401       .  A
C1166      H1167   1.084       .  S
C1169      C1170   1.400       .  A
C1169      C1174   1.403       .  A
C1169      H1176   1.084       .  S
C1170      C1171   1.413       .  A
C1171      C1172   1.405       .  A
C1171      C1178   1.517       .  S
C1172      C1173   1.403       .  A
C1172      H1177   1.082       .  S
C1173      C1174   1.418       .  A
C1174      C1175   1.522       .  S
C1175      F1179   1.385       .  S
C1175      F1180   1.382       .  S
C1175      F1181   1.382       .  S
C1178      F1182   1.383       .  S
C1178      F1183   1.383       .  S
C1178      F1184   1.385       .  S
C1185      C1186   1.402       .  A
C1185      C1190   1.405       .  A
C1185      H1192   1.085       .  S
C1186      C1187   1.415       .  A
C1187      C1188   1.409       .  A
C1187      C1194   1.517       .  S
C1188      C1189   1.405       .  A
C1188      H1193   1.083       .  S
C1189      C1190   1.420       .  A
C1190      C2743   1.519       .  S
C1191      C2742   1.518       .  S
C1191      F1195   1.385       .  S
C1191      F1196   1.382       .  S
C1191      F1197   1.378       .  S
C1194      F1198   1.382       .  S
C1194      F1199   1.383       .  S
C1194      F1200   1.385       .  S
C1201      C1202   1.408       .  A
C1201      C1206   1.404       .  A
C1201      H1208   1.083       .  S
C1202      C1203   1.425       .  A
C1203      C1204   1.406       .  A
C1203      C1210   1.522       .  S
C1204      C1205   1.399       .  A
C1204      H1209   1.078       .  S
C1205      C1206   1.414       .  A
C1206      C1207   1.522       .  S
C1207      F1211   1.384       .  S
C1207      F1212   1.382       .  S
C1207      F1213   1.382       .  S
C1210      F1214   1.383       .  S
C1210      F1215   1.383       .  S
C1210      F1216   1.385       .  S
C1217      C1218   1.402       .  A
C1217      C1222   1.404       .  A
C1217      H1224   1.080       .  S
C1218      C1219   1.417       .  A
C1219      C1220   1.402       .  A
C1219      C1226   1.520       .  S
C1220      C1221   1.402       .  A
C1220      H1225   1.082       .  S
C1221      C1222   1.415       .  A
C1222      C1223   1.519       .  S
C1223      F1227   1.385       .  S
C1223      F1228   1.384       .  S
C1223      F1229   1.382       .  S
C1226      F1230   1.383       .  S
C1226      F1231   1.381       .  S
C1226      F1232   1.384       .  S
C1233      C1234   1.403       .  A
C1233      C1238   1.408       .  A
C1233      H1240   1.083       .  S
C1234      C1235   1.417       .  A
C1235      C1236   1.408       .  A
C1235      C1242   1.517       .  S
C1236      C1237   1.403       .  A
C1236      H1241   1.083       .  S
C1237      C1238   1.417       .  A
C1238      C1239   1.519       .  S
C1239      F1243   1.385       .  S
C1239      F1244   1.384       .  S
C1239      F1245   1.383       .  S
C1242      F1246   1.378       .  S
C1242      F1247   1.382       .  S
C1242      F1248   1.384       .  S
C1249      C1250   1.402       .  A
C1249      C1254   1.403       .  A
C1249      H1256   1.085       .  S
C1250      C1251   1.416       .  A
C1251      C1252   1.405       .  A
C1251      C1258   1.519       .  S
C1252      C1253   1.403       .  A
C1252      H1257   1.083       .  S
C1253      C1254   1.418       .  A
C1254      C1255   1.517       .  S
C1255      F1259   1.383       .  S
C1255      F1260   1.379       .  S
C1255      F1261   1.384       .  S
C1258      F1262   1.384       .  S
C1258      F1263   1.382       .  S
C1265      C1266   1.405       .  A
C1265      C1270   1.409       .  A
C1265      H1272   1.082       .  S
C1266      C1267   1.419       .  A
C1267      C1268   1.404       .  A
C1267      C1274   1.520       .  S
C1268      C1269   1.404       .  A
C1268      H1273   1.085       .  S
C1269      C1270   1.417       .  A
C1270      C1271   1.519       .  S
C1271      F1275   1.384       .  S
C1271      F1276   1.384       .  S
C1271      F1277   1.383       .  S
C1274      F1278   1.378       .  S
C1274      F1279   1.383       .  S
C1274      F1280   1.383       .  S
C1281      C1282   1.405       .  A
C1281      C1286   1.402       .  A
C1281      H1288   1.083       .  S
C1282      C1283   1.422       .  A
C1283      C1284   1.410       .  A
C1283      C1290   1.519       .  S
C1284      C1285   1.404       .  A
C1284      H1289   1.083       .  S
C1285      C1286   1.416       .  A
C1286      C1287   1.523       .  S
C1287      F1291   1.381       .  S
C1290      F1294   1.383       .  S
C1290      F1295   1.383       .  S
C1290      F1296   1.385       .  S
C1297      C1298   1.405       .  A
C1297      C1302   1.402       .  A
C1297      H1304   1.083       .  S
C1298      C1299   1.420       .  A
C1299      C1300   1.408       .  A
C1299      C1306   1.519       .  S
C1300      C1301   1.402       .  A
C1300      H1305   1.083       .  S
C1301      C1302   1.416       .  A
C1302      C1303   1.523       .  S
C1303      F1307   1.382       .  S
C1303      F1308   1.384       .  S
C1303      F1309   1.382       .  S
C1306      F1310   1.382       .  S
C1306      F1311   1.384       .  S
C1306      F1312   1.385       .  S
C1313      C1314   1.405       .  A
C1313      C1318   1.410       .  A
C1313      H1320   1.079       .  S
C1314      C1315   1.417       .  A
C1315      C1316   1.399       .  A
C1315      C1322   1.521       .  S
C1316      C1317   1.404       .  A
C1316      H1321   1.084       .  S
C1317      C1318   1.420       .  A
C1318      C1319   1.519       .  S
C1319      F1323   1.385       .  S
C1319      F1324   1.383       .  S
C1319      F1325   1.383       .  S
C1322      F1326   1.381       .  S
C1322      F1327   1.384       .  S
C1322      F1328   1.383       .  S
C1329      C1330   1.406       .  A
C1329      C1334   1.411       .  A
C1329      H1336   1.081       .  S
C1330      C1331   1.420       .  A
C1331      C1332   1.403       .  A
C1331      C1338   1.519       .  S
C1332      C1333   1.403       .  A
C1332      H1337   1.085       .  S
C1333      C1334   1.418       .  A
C1334      C1335   1.519       .  S
C1335      F1339   1.385       .  S
C1335      F1340   1.383       .  S
C1335      F1341   1.384       .  S
C1338      F1343   1.384       .  S
C1338      F1344   1.383       .  S
C1345      C1346   1.402       .  A
C1345      C1350   1.405       .  A
C1345      H1352   1.081       .  S
C1346      C1347   1.419       .  A
C1347      C1348   1.404       .  A
C1347      C2906   1.519       .  S
C1348      C1349   1.399       .  A
C1348      H1353   1.085       .  S
C1349      C1350   1.416       .  A
C1350      C1351   1.518       .  S
C1351      F1355   1.385       .  S
C1351      F1356   1.382       .  S
C1351      F1357   1.383       .  S
C1354      C2899   1.521       .  S
C1354      F1358   1.382       .  S
C1354      F1359   1.381       .  S
C1354      F1360   1.385       .  S
C1361      C1362   1.407       .  A
C1361      C1366   1.408       .  A
C1361      H1368   1.083       .  S
C1362      C1363   1.419       .  A
C1363      C1364   1.408       .  A
C1363      C1370   1.519       .  S
C1364      C1365   1.402       .  A
C1364      H1369   1.078       .  S
C1365      C1366   1.418       .  A
C1366      C2919   1.524       .  S
C1367      C2918   1.521       .  S
C1367      F1371   1.381       .  S
C1367      F1372   1.381       .  S
C1367      F1373   1.385       .  S
C1370      F1374   1.384       .  S
C1370      F1375   1.383       .  S
C1370      F1376   1.384       .  S
C1377      C1378   1.402       .  A
C1377      C1382   1.409       .  A
C1377      H1384   1.083       .  S
C1378      C1379   1.414       .  A
C1379      C1380   1.407       .  A
C1379      C1386   1.517       .  S
C1380      C1381   1.404       .  A
C1380      H1385   1.081       .  S
C1381      C1382   1.421       .  A
C1382      C1383   1.520       .  S
C1383      F1387   1.385       .  S
C1383      F1388   1.381       .  S
C1383      F1389   1.377       .  S
C1386      F1390   1.382       .  S
C1386      F1391   1.383       .  S
C1386      F1392   1.384       .  S
C1393      C1394   1.405       .  A
C1393      C1398   1.402       .  A
C1393      H1400   1.084       .  S
C1394      C1395   1.418       .  A
C1395      C1396   1.409       .  A
C1395      C1402   1.518       .  S
C1396      C1397   1.405       .  A
C1396      H1401   1.082       .  S
C1397      C1398   1.419       .  A
C1398      C1399   1.521       .  S
C1399      F1403   1.384       .  S
C1399      F1404   1.383       .  S
C1399      F1405   1.378       .  S
C1402      F1406   1.384       .  S
C1402      F1407   1.383       .  S
C1402      F1408   1.385       .  S
C1409      C1410   1.400       .  A
C1409      C1414   1.404       .  A
C1409      H1416   1.084       .  S
C1410      C1411   1.412       .  A
C1411      C1412   1.406       .  A
C1411      C1418   1.517       .  S
C1412      C1413   1.405       .  A
C1412      H1417   1.081       .  S
C1413      C1414   1.422       .  A
C1414      C1415   1.520       .  S
C1415      F1419   1.384       .  S
C1415      F1420   1.383       .  S
C1415      F1421   1.379       .  S
C1418      F1422   1.382       .  S
C1418      F1423   1.383       .  S
C1418      F2976   1.385       .  S
F1424      C2970   1.385       .  S
C1425      C1426   1.400       .  A
C1425      C1430   1.406       .  A
C1425      H1432   1.081       .  S
C1426      C1427   1.417       .  A
C1427      C1428   1.407       .  A
C1427      C1434   1.519       .  S
C1428      C1429   1.404       .  A
C1428      H1433   1.083       .  S
C1429      C1430   1.422       .  A
C1430      C1431   1.521       .  S
C1431      F1435   1.385       .  S
C1431      F1436   1.382       .  S
C1431      F1437   1.384       .  S
C1434      F1438   1.379       .  S
C1434      F1439   1.381       .  S
C1434      F1440   1.385       .  S
C1441      C1442   1.404       .  A
C1441      C1446   1.409       .  A
C1441      H1448   1.082       .  S
C1442      C1443   1.422       .  A
C1443      C1444   1.407       .  A
C1443      C1450   1.519       .  S
C1444      C1445   1.400       .  A
C1444      H1449   1.085       .  S
C1445      C1446   1.415       .  A
C1446      C1447   1.516       .  S
C1447      F1451   1.385       .  S
C1447      F1452   1.383       .  S
C1447      F1453   1.382       .  S
C1450      F1454   1.384       .  S
C1450      F1455   1.381       .  S
C1450      F1456   1.383       .  S
C1457      C1458   1.400       .  A
C1457      C1462   1.406       .  A
C1457      H1464   1.084       .  S
C1458      C1459   1.416       .  A
C1459      C1460   1.403       .  A
C1459      C1466   1.518       .  S
C1460      C1461   1.403       .  A
C1460      H1465   1.083       .  S
C1461      C1462   1.419       .  A
C1462      C1463   1.521       .  S
C1463      F1467   1.385       .  S
C1463      F1468   1.381       .  S
C1463      F1469   1.382       .  S
C1466      F1470   1.382       .  S
C1466      F1471   1.382       .  S
C1466      F1472   1.384       .  S
C1473      C1474   1.409       .  A
C1473      C1478   1.408       .  A
C1473      H1480   1.082       .  S
C1474      C1475   1.426       .  A
C1475      C1476   1.409       .  A
C1475      C1482   1.520       .  S
C1476      C1477   1.401       .  A
C1476      H1481   1.079       .  S
C1477      C1478   1.417       .  A
C1478      C1479   1.522       .  S
C1479      F1483   1.381       .  S
C1479      F1484   1.383       .  S
C1479      F1485   1.384       .  S
C1482      F1486   1.382       .  S
C1482      F1487   1.383       .  S
C1482      F1488   1.385       .  S
C1489      C1490   1.407       .  A
C1489      C1494   1.404       .  A
C1489      H1496   1.085       .  S
C1490      C1491   1.421       .  A
C1491      C1492   1.413       .  A
C1491      C1498   1.520       .  S
C1492      C1493   1.407       .  A
C1492      H1497   1.079       .  S
C1493      C1494   1.420       .  A
C1494      C3047   1.521       .  S
C1495      C3046   1.520       .  S
C1495      F1499   1.383       .  S
C1495      F1500   1.383       .  S
C1495      F1501   1.378       .  S
C1498      F1502   1.383       .  S
C1498      F1503   1.383       .  S
C1498      F1504   1.385       .  S
C1505      C1506   1.402       .  A
C1505      C1510   1.406       .  A
C1505      H1512   1.082       .  S
C1506      C1507   1.418       .  A
C1507      C1508   1.402       .  A
C1507      C1514   1.519       .  S
C1508      C1509   1.404       .  A
C1508      H1513   1.085       .  S
C1509      C1510   1.419       .  A
C1510      C1511   1.520       .  S
C1511      F1515   1.385       .  S
C1511      F1516   1.383       .  S
C1511      F1517   1.383       .  S
C1514      F1518   1.381       .  S
C1514      F1519   1.384       .  S
C1514      F1520   1.383       .  S
C1521      C1522   1.405       .  A
C1521      C1526   1.405       .  A
C1521      H1528   1.081       .  S
C1522      C1523   1.422       .  A
C1523      C1524   1.405       .  A
C1523      C1530   1.520       .  S
C1524      C1525   1.400       .  A
C1524      H1529   1.083       .  S
C1525      C1526   1.412       .  A
C1526      C1527   1.518       .  S
C1527      F1531   1.384       .  S
C1527      F1532   1.383       .  S
C1527      F1533   1.383       .  S
C1530      F1534   1.380       .  S
C1530      F1535   1.383       .  S
C1530      F1536   1.384       .  S
C1537      C1538   1.401       .  A
C1537      C1542   1.402       .  A
C1537      H1544   1.083       .  S
C1538      C1539   1.420       .  A
C1539      C1540   1.407       .  A
C1539      C1546   1.521       .  S
C1540      C1541   1.399       .  A
C1540      H1545   1.083       .  S
C1541      C1542   1.414       .  A
C1542      C1543   1.517       .  S
C1543      F1547   1.385       .  S
C1543      F1548   1.382       .  S
C1543      F1549   1.383       .  S
C1546      F1550   1.381       .  S
C1546      F1551   1.382       .  S
C1546      F1552   1.385       .  S
Zn1553     O1557   1.945   1_554  S
Zn1553     O1558   2.006       .  S
Zn1553     O1562   2.009       .  S
Zn1553     O1569   2.021       .  S
Zn1554     O1557   1.960       .  S
Zn1554     O1559   2.038       .  S
Zn1554     O1561   2.017   1_556  S
Zn1554     O1565   1.998       .  S
Zn1555     O1557   1.948       .  S
Zn1555     O1560   2.023   1_556  S
Zn1555     O1563   1.999       .  S
Zn1555     O1566   2.035       .  S
Zn1556     O1557   1.950       .  S
Zn1556     O1564   2.013       .  S
Zn1556     O1567   2.018       .  S
Zn1556     O1568   2.016   1_556  S
O1558      C1570   1.272       .  A
O1559      C1571   1.275       .  A
O1560      C1572   1.274       .  A
O1561      C1570   1.274       .  A
O1562      C1572   1.272       .  A
O1563      C1571   1.273       .  A
O1564      C1573   1.273       .  A
O1565      C1574   1.271       .  A
O1566      C1573   1.276       .  A
O1567      C1574   1.274       .  A
O1568      C1575   1.271       .  A
O1569      C1575   1.275       .  A
C1570      C2301   1.476       .  S
C1571      C2266   1.487       .  S
C1572      C2285   1.474       .  S
C1573      C2234   1.472       .  S
C1574      C2317   1.468       .  S
C1575      C2250   1.497       .  S
Zn1576     O1580   1.944       .  S
Zn1576     O1581   2.007       .  S
Zn1576     O1585   2.004       .  S
Zn1576     O1592   2.004       .  S
Zn1577     O1580   1.955       .  S
Zn1577     O1582   2.021       .  S
Zn1577     O1584   2.027       .  S
Zn1577     O1588   2.035       .  S
Zn1578     O1580   1.947       .  S
Zn1578     O1583   2.005       .  S
Zn1578     O1586   2.010       .  S
Zn1578     O1589   1.985       .  S
Zn1579     O1580   1.953       .  S
Zn1579     O1587   2.038       .  S
Zn1579     O1590   2.000       .  S
Zn1579     O1591   2.030       .  S
O1581      C1593   1.272       .  A
O1582      C1594   1.273       .  A
O1583      C1595   1.271       .  A
O1584      C1593   1.275       .  A
O1585      C1595   1.273       .  A
O1586      C1594   1.272       .  A
O1587      C1596   1.275       .  A
O1588      C1597   1.276       .  A
O1589      C1596   1.271       .  A
O1590      C1597   1.273       .  A
O1591      C1598   1.275       .  A
O1592      C1598   1.271       .  A
C1593      C2186   1.474       .  S
C1594      C2221   1.471       .  S
C1595      C2205   1.480       .  S
C1596      C2170   1.482       .  S
C1597      C2138   1.483       .  S
C1598      C2154   1.475       .  S
N1599      C1604   1.351       .  A
N1599      C1603   1.349       .  A
N1599      H1631   1.042       .  S
N1600      C2383   1.347       .  A
N1600      C1608   1.348   1_565  A
N1601      C1606   1.349       .  A
N1601      C1605   1.350       .  A
N1601      H1632   1.042       .  S
N1602      C2385   1.349       .  A
N1602      C1610   1.348   1_565  A
C1603      C1611   1.386       .  A
C1603      C1619   1.409       .  A
C1604      C1620   1.409       .  A
C1604      C1612   1.385       .  A
C1605      C1613   1.385       .  A
C1605      C1622   1.408       .  A
C1606      C1621   1.409       .  A
C1606      C1614   1.387       .  A
C1607      N2376   1.349       .  A
C1607      C1619   1.411       .  A
C1607      C1615   1.386       .  A
C1608      C1622   1.408       .  A
C1608      C1616   1.386       .  A
C1609      N2378   1.348       .  A
C1609      C1617   1.385       .  A
C1609      C1620   1.408       .  A
C1610      C1618   1.386       .  A
C1610      C1621   1.409       .  A
C1611      C1612   1.378       .  A
C1611      H1623   1.082       .  S
C1612      H1624   1.082       .  S
C1613      C1614   1.379       .  A
C1613      H1625   1.082       .  S
C1614      H1626   1.082       .  S
C1615      C2392   1.379       .  A
C1615      H1627   1.082       .  S
C1616      C2391   1.377   1_545  A
C1616      H1628   1.080       .  S
C1617      C2394   1.377       .  A
C1617      H1629   1.082       .  S
C1618      C2393   1.377   1_545  A
C1618      H1630   1.082       .  S
C1619      C1721   1.483       .  S
C1620      C1728   1.485       .  S
C1621      C1705   1.481       .  S
C1622      C1745   1.483       .  S
N1633      C1638   1.353       .  A
N1633      C1637   1.353       .  A
N1633      H1665   1.041       .  S
N1634      C1641   1.349       .  A
N1634      C1642   1.349       .  A
N1635      C1640   1.352       .  A
N1635      C1639   1.352       .  A
N1635      H1666   1.041       .  S
N1636      C1643   1.350       .  A
N1636      C1644   1.350       .  A
C1637      C1645   1.385       .  A
C1637      C1653   1.413       .  A
C1638      C1654   1.412       .  A
C1638      C1646   1.385       .  A
C1639      C1647   1.386       .  A
C1639      C1656   1.411       .  A
C1640      C1655   1.412       .  A
C1640      C1648   1.386       .  A
C1641      C1653   1.409       .  A
C1641      C1649   1.386       .  A
C1642      C1656   1.409       .  A
C1642      C1650   1.386       .  A
C1643      C1651   1.386       .  A
C1643      C1654   1.413       .  A
C1644      C1652   1.385       .  A
C1644      C1655   1.411       .  A
C1645      C1646   1.378       .  A
C1645      H1657   1.080       .  S
C1646      H1658   1.082       .  S
C1647      C1648   1.379       .  A
C1647      H1659   1.082       .  S
C1648      H1660   1.082       .  S
C1649      C1650   1.377       .  A
C1649      H1661   1.082       .  S
C1650      H1662   1.081       .  S
C1651      C1652   1.379       .  A
C1651      H1663   1.081       .  S
C1652      H1664   1.082       .  S
C1653      C1736   1.489       .  S
C1654      C1712   1.492       .  S
C1655      C1704   1.488       .  S
C1656      C1744   1.486       .  S
N1667      C1672   1.350       .  A
N1667      C1671   1.351       .  A
N1667      H1699   1.041       .  S
N1668      C1676   1.349       .  A
N1669      C1674   1.349       .  A
N1669      C1673   1.349       .  A
N1669      H1700   1.041       .  S
N1670      C1678   1.345       .  A
C1671      C1679   1.385       .  A
C1671      C1687   1.410       .  A
C1672      C1688   1.410       .  A
C1672      C1680   1.386       .  A
C1673      C1681   1.386       .  A
C1673      C1690   1.408       .  A
C1674      C1689   1.407       .  A
C1674      C1682   1.386       .  A
C1675      C1687   1.407       .  A
C1675      C1683   1.386       .  A
C1676      C1690   1.410       .  A
C1676      C1684   1.386       .  A
C1677      C1685   1.386       .  A
C1677      C1688   1.410       .  A
C1678      C1686   1.386       .  A
C1678      C1689   1.405       .  A
C1679      C1680   1.379       .  A
C1679      H1691   1.082       .  S
C1680      H1692   1.082       .  S
C1681      C1682   1.378       .  A
C1681      H1693   1.082       .  S
C1682      H1694   1.082       .  S
C1683      H1695   1.082       .  S
C1684      H1696   1.082       .  S
C1685      H1697   1.082       .  S
C1686      H1698   1.082       .  S
C1687      C1720   1.483       .  S
C1688      C1729   1.486       .  S
C1689      C1713   1.475       .  S
C1690      C1737   1.484       .  S
C1701      C2141   1.486       .  S
C1701      C1706   1.401       .  A
C1702      C2122   1.482       .  S
C1702      C1703   1.404       .  A
C1703      C1704   1.400       .  A
C1703      H1708   1.084       .  S
C1705      C1706   1.398       .  A
C1706      H1707   1.084       .  S
C1709      C2106   1.489       .  S
C1709      C2486   1.417       .  A
C1709      C1714   1.399       .  A
C1710      C2173   1.479       .  S
C1710      C2485   1.416   1_545  A
C1710      C1711   1.407       .  A
C1711      C1712   1.400       .  A
C1711      H1716   1.084       .  S
C1712      C2489   1.414   1_545  A
C1713      C2488   1.414       .  A
C1713      C1714   1.400       .  A
C1714      H1715   1.085       .  S
C1717      C2090   1.484       .  S
C1717      C1718   1.414       .  A
C1717      C1722   1.401       .  A
C1718      C2314   1.477       .  S
C1718      C1719   1.401       .  A
C1719      C1720   1.398       .  A
C1719      H1724   1.084       .  S
C1720      C1721   1.413       .  A
C1721      C1722   1.398       .  A
C1722      H1723   1.083       .  S
C1725      C2218   1.479       .  S
C1725      C1726   1.414       .  A
C1725      C1730   1.404       .  A
C1726      C2077   1.487       .  S
C1726      C1727   1.403       .  A
C1727      C1728   1.400       .  A
C1727      H1732   1.084       .  S
C1728      C1729   1.414       .  A
C1729      C1730   1.399       .  A
C1730      H1731   1.084       .  S
C1733      C2061   1.484       .  S
C1733      C2510   1.417       .  A
C1733      C1738   1.402       .  A
C1734      C2237   1.493       .  S
C1734      C2509   1.419   1_545  A
C1734      C1735   1.409       .  A
C1735      C1736   1.403       .  A
C1735      H1740   1.084       .  S
C1736      C2513   1.413   1_545  A
C1737      C2512   1.413       .  A
C1737      C1738   1.397       .  A
C1738      H1739   1.084       .  S
C1741      C2269   1.486       .  S
C1741      C1746   1.403       .  A
C1742      C2042   1.482       .  S
C1742      C1743   1.404       .  A
C1743      C1744   1.400       .  A
C1743      H1748   1.084       .  S
C1745      C1746   1.399       .  A
C1746      H1747   1.084       .  S
Zn1749     O1753   1.957       .  S
Zn1749     O1754   2.020       .  S
Zn1749     O1758   2.033       .  S
Zn1749     O1765   2.018       .  S
Zn1750     O1753   1.956       .  S
Zn1750     O1755   1.997       .  S
Zn1750     O1757   2.030       .  S
Zn1750     O1761   2.011       .  S
Zn1751     O1753   1.957       .  S
Zn1751     O1756   1.994       .  S
Zn1751     O1759   2.030       .  S
Zn1751     O1762   2.033       .  S
Zn1752     O1753   1.953       .  S
Zn1752     O1760   2.028       .  S
Zn1752     O1763   2.024       .  S
Zn1752     O1764   2.002       .  S
O1754      C1766   1.274       .  A
O1755      C1767   1.272       .  A
O1756      C1768   1.271       .  A
O1757      C1766   1.273       .  A
O1758      C1768   1.275       .  A
O1759      C1767   1.275       .  A
O1760      C1769   1.274       .  A
O1761      C1770   1.272       .  A
O1762      C1769   1.274       .  A
O1763      C1770   1.274       .  A
O1764      C1771   1.272       .  A
O1765      C1771   1.275       .  A
C1766      C2074   1.491       .  S
C1767      C2125   1.468       .  S
C1768      C2109   1.475       .  S
C1769      C2013   1.482       .  S
C1770      C1997   1.472       .  S
C1771      C2026   1.471       .  S
Zn1772     O1776   1.953   1_556  S
Zn1772     O1777   2.027       .  S
Zn1772     O1781   2.003       .  S
Zn1772     O1788   2.015   1_556  S
Zn1773     O1776   1.945   1_556  S
Zn1773     O1778   2.027       .  S
Zn1773     O1780   2.008       .  S
Zn1773     O1784   2.018   1_556  S
Zn1774     O1776   1.949   1_556  S
Zn1774     O1779   2.017       .  S
Zn1774     O1782   1.997       .  S
Zn1774     O1785   2.007   1_556  S
Zn1775     O1776   1.944       .  S
Zn1775     O1783   2.008       .  S
Zn1775     O1786   2.016       .  S
Zn1775     O1787   2.011       .  S
O1777      C1789   1.273       .  A
O1778      C1790   1.274       .  A
O1779      C1791   1.273       .  A
O1780      C1789   1.274       .  A
O1781      C1791   1.273       .  A
O1782      C1790   1.272       .  A
O1783      C1792   1.272       .  A
O1784      C1793   1.274       .  A
O1785      C1792   1.271       .  A
O1786      C1793   1.273       .  A
O1787      C1794   1.275       .  A
O1788      C1794   1.272       .  A
C1789      C2058   1.488       .  S
C1790      C2045   1.481       .  S
C1791      C2093   1.484       .  S
C1792      C1946   1.469       .  S
C1793      C1962   1.478       .  S
C1794      C1978   1.491       .  S
N1795      C1800   1.351       .  A
N1795      C1799   1.349       .  A
N1795      H1827   1.041       .  S
N1796      C1804   1.348   1_455  A
N1797      C1802   1.350       .  A
N1797      C1801   1.352       .  A
N1797      H1828   1.041       .  S
N1798      C1806   1.349   1_455  A
C1799      C1807   1.386       .  A
C1799      C1815   1.409       .  A
C1800      C1816   1.408       .  A
C1800      C1808   1.385       .  A
C1801      C1809   1.385       .  A
C1801      C1818   1.411       .  A
C1802      C1817   1.411       .  A
C1802      C1810   1.386       .  A
C1803      C1815   1.407       .  A
C1803      C1811   1.386       .  A
C1804      C1818   1.408       .  A
C1804      C1812   1.386       .  A
C1805      C1813   1.385       .  A
C1805      C1816   1.407       .  A
C1806      C1814   1.386       .  A
C1806      C1817   1.411       .  A
C1807      C1808   1.379       .  A
C1807      H1819   1.082       .  S
C1808      H1820   1.082       .  S
C1809      C1810   1.379       .  A
C1809      H1821   1.082       .  S
C1810      H1822   1.082       .  S
C1811      H1823   1.082       .  S
C1812      H1824   1.082       .  S
C1813      H1825   1.082       .  S
C1814      H1826   1.082       .  S
C1815      C1916   1.480       .  S
C1816      C1924   1.485       .  S
C1817      C1908   1.485       .  S
C1818      C1866   1.485       .  S
N1829      C1834   1.354       .  A
N1829      C1833   1.353       .  A
N1829      H1861   1.041       .  S
N1830      C1837   1.350       .  A
N1830      C1838   1.350       .  A
N1831      C1836   1.353       .  A
N1831      C1835   1.352       .  A
N1831      H1862   1.041       .  S
N1832      C1839   1.351       .  A
N1832      C1840   1.352       .  A
C1833      C1841   1.386       .  A
C1833      C1849   1.415       .  A
C1834      C1850   1.414       .  A
C1834      C1842   1.385       .  A
C1835      C1843   1.386       .  A
C1835      C1852   1.412       .  A
C1836      C1851   1.412       .  A
C1836      C1844   1.385       .  A
C1837      C1849   1.412       .  A
C1837      C1845   1.386       .  A
C1838      C1852   1.412       .  A
C1838      C1846   1.386       .  A
C1839      C1847   1.385       .  A
C1839      C1850   1.414       .  A
C1840      C1848   1.385       .  A
C1840      C1851   1.413       .  A
C1841      C1842   1.379       .  A
C1841      H1853   1.082       .  S
C1842      H1854   1.082       .  S
C1843      C1844   1.378       .  A
C1843      H1855   1.082       .  S
C1844      H1856   1.082       .  S
C1845      C1846   1.379       .  A
C1845      H1857   1.082       .  S
C1846      H1858   1.082       .  S
C1847      C1848   1.378       .  A
C1847      H1859   1.081       .  S
C1848      H1860   1.081       .  S
C1849      C1941   1.493       .  S
C1850      C1933   1.496       .  S
C1851      C1867   1.493       .  S
C1852      C1909   1.489       .  S
C1863      C2029   1.482       .  S
C1863      C2640   1.418       .  A
C1863      C1868   1.408       .  A
C1864      C2157   1.488       .  S
C1864      C2639   1.417   1_545  A
C1864      C1865   1.404       .  A
C1865      C1866   1.401       .  A
C1865      H1870   1.084       .  S
C1866      C2643   1.414   1_545  A
C1867      C2642   1.415       .  A
C1867      C1868   1.402       .  A
C1868      H1869   1.084       .  S
N1871      C1876   1.351       .  A
N1871      C1875   1.350       .  A
N1871      H1903   1.041       .  S
N1872      C2655   1.347       .  A
N1872      C1880   1.348   1_565  A
N1873      C1878   1.351       .  A
N1873      C1877   1.351       .  A
N1873      H1904   1.042       .  S
N1874      C2657   1.348       .  A
N1874      C1882   1.348   1_565  A
C1875      C1883   1.386       .  A
C1875      C1891   1.409       .  A
C1876      C1892   1.410       .  A
C1876      C1884   1.386       .  A
C1877      C1885   1.386       .  A
C1877      C1894   1.410       .  A
C1878      C1893   1.409       .  A
C1878      C1886   1.385       .  A
C1879      N2648   1.348       .  A
C1879      C1891   1.409       .  A
C1879      C1887   1.386       .  A
C1880      C1894   1.407       .  A
C1880      C1888   1.385       .  A
C1881      N2650   1.348       .  A
C1881      C1889   1.386       .  A
C1881      C1892   1.409       .  A
C1882      C1890   1.385       .  A
C1882      C1893   1.408       .  A
C1883      C1884   1.379       .  A
C1883      H1895   1.082       .  S
C1884      H1896   1.082       .  S
C1885      C1886   1.379       .  A
C1885      H1897   1.082       .  S
C1886      H1898   1.082       .  S
C1887      C2664   1.378       .  A
C1887      H1899   1.082       .  S
C1888      C2663   1.377   1_545  A
C1888      H1900   1.082       .  S
C1889      C2666   1.377       .  A
C1889      H1901   1.081       .  S
C1890      C2665   1.377   1_545  A
C1890      H1902   1.082       .  S
C1891      C1940   1.483       .  S
C1892      C1932   1.485       .  S
C1893      C1917   1.484       .  S
C1894      C1925   1.483       .  S
C1905      C1981   1.483       .  S
C1905      C2682   1.417       .  A
C1905      C1910   1.403       .  A
C1906      C2282   1.487       .  S
C1906      C2681   1.418   1_545  A
C1906      C1907   1.403       .  A
C1907      C1908   1.401       .  A
C1907      H1912   1.084       .  S
C1908      C2685   1.414   1_545  A
C1909      C2684   1.414       .  A
C1909      C1910   1.398       .  A
C1910      H1911   1.084       .  S
C1913      C2202   1.475       .  S
C1913      C1914   1.414       .  A
C1913      C1918   1.401       .  A
C1914      C1994   1.484       .  S
C1914      C1915   1.401       .  A
C1915      C1916   1.399       .  A
C1915      H1920   1.084       .  S
C1916      C1917   1.413       .  A
C1917      C1918   1.396       .  A
C1918      H1919   1.084       .  S
C1921      C2253   1.491       .  S
C1921      C1922   1.418       .  A
C1921      C1926   1.403       .  A
C1922      C1949   1.479       .  S
C1922      C1923   1.402       .  A
C1923      C1924   1.397       .  A
C1923      H1928   1.084       .  S
C1924      C1925   1.413       .  A
C1925      C1926   1.400       .  A
C1926      H1927   1.083       .  S
C1929      C2189   1.483       .  S
C1929      C1934   1.409       .  A
C1930      C2010   1.490       .  S
C1930      C1931   1.404       .  A
C1931      C1932   1.403       .  A
C1931      H1936   1.084       .  S
C1933      C1934   1.402       .  A
C1934      H1935   1.084       .  S
C1937      C2298   1.479       .  S
C1937      C1942   1.406       .  A
C1938      C1965   1.479       .  S
C1938      C1939   1.401       .  A
C1939      C1940   1.398       .  A
C1939      H1944   1.084       .  S
C1941      C1942   1.400       .  A
C1942      H1943   1.084       .  S
C1945      C1946   1.402       .  A
C1945      C1950   1.405       .  A
C1945      H1952   1.084       .  S
C1946      C1947   1.412       .  A
C1947      C1948   1.404       .  A
C1947      C1954   1.517       .  S
C1948      C1949   1.402       .  A
C1948      H1953   1.082       .  S
C1949      C1950   1.419       .  A
C1950      C1951   1.523       .  S
C1951      F1955   1.385       .  S
C1951      F1956   1.381       .  S
C1951      F1957   1.382       .  S
C1954      F1958   1.382       .  S
C1954      F1959   1.383       .  S
C1954      F1960   1.385       .  S
C1961      C1962   1.402       .  A
C1961      C1966   1.402       .  A
C1961      H1968   1.085       .  S
C1962      C1963   1.417       .  A
C1963      C1964   1.408       .  A
C1963      C1970   1.518       .  S
C1964      C1965   1.404       .  A
C1964      H1969   1.083       .  S
C1965      C1966   1.417       .  A
C1967      F1971   1.384       .  S
C1967      F1972   1.382       .  S
C1967      F1973   1.381       .  S
C1970      F1974   1.382       .  S
C1970      F1975   1.383       .  S
C1970      F1976   1.385       .  S
C1977      C1978   1.407       .  A
C1977      C1982   1.404       .  A
C1977      H1984   1.083       .  S
C1978      C1979   1.425       .  A
C1979      C1980   1.406       .  A
C1979      C1986   1.521       .  S
C1980      C1981   1.399       .  A
C1980      H1985   1.079       .  S
C1981      C1982   1.416       .  A
C1982      C1983   1.522       .  S
C1983      F1987   1.385       .  S
C1983      F1988   1.382       .  S
C1983      F1989   1.381       .  S
C1986      F1990   1.383       .  S
C1986      F1991   1.382       .  S
C1986      F1992   1.385       .  S
C1993      C1994   1.404       .  A
C1993      C1998   1.405       .  A
C1993      H2000   1.078       .  S
C1994      C1995   1.418       .  A
C1995      C1996   1.404       .  A
C1995      C2002   1.519       .  S
C1996      C1997   1.401       .  A
C1996      H2001   1.084       .  S
C1997      C1998   1.413       .  A
C1998      C1999   1.517       .  S
C1999      F2003   1.385       .  S
C1999      F2004   1.383       .  S
C1999      F2005   1.382       .  S
C2002      F2006   1.385       .  S
C2002      F2007   1.383       .  S
C2002      F2008   1.382       .  S
C2009      C2010   1.405       .  A
C2009      C2014   1.408       .  A
C2009      H2016   1.082       .  S
C2010      C2011   1.422       .  A
C2011      C2012   1.408       .  A
C2011      C2018   1.520       .  S
C2012      C2013   1.403       .  A
C2012      H2017   1.085       .  S
C2013      C2014   1.413       .  A
C2014      C2015   1.516       .  S
C2015      F2019   1.384       .  S
C2015      F2020   1.384       .  S
C2015      F2021   1.382       .  S
C2018      F2022   1.384       .  S
C2018      F2023   1.379       .  S
C2018      F2024   1.383       .  S
C2025      C2026   1.399       .  A
C2025      C2030   1.401       .  A
C2025      H2032   1.086       .  S
C2026      C2027   1.414       .  A
C2027      C2028   1.407       .  A
C2027      C2034   1.518       .  S
C2028      C2029   1.406       .  A
C2028      H2033   1.082       .  S
C2029      C2030   1.419       .  A
C2030      C2031   1.518       .  S
C2031      F2035   1.383       .  S
C2031      F2036   1.379       .  S
C2031      F2037   1.384       .  S
C2034      F2038   1.383       .  S
C2034      F2039   1.382       .  S
C2034      F2816   1.385       .  S
F2040      C2810   1.385       .  S
C2041      C2042   1.404       .  A
C2041      C2046   1.407       .  A
C2041      H2048   1.082       .  S
C2042      C2043   1.419       .  A
C2043      C2044   1.402       .  A
C2043      C2050   1.521       .  S
C2044      C2045   1.404       .  A
C2044      H2049   1.085       .  S
C2045      C2046   1.417       .  A
C2046      C2047   1.519       .  S
C2047      F2051   1.385       .  S
C2047      F2052   1.384       .  S
C2047      F2053   1.383       .  S
C2050      F2054   1.383       .  S
C2050      F2055   1.383       .  S
C2050      F2056   1.379       .  S
C2057      C2058   1.406       .  A
C2057      C2062   1.403       .  A
C2057      H2064   1.083       .  S
C2058      C2059   1.422       .  A
C2059      C2060   1.409       .  A
C2059      C2066   1.519       .  S
C2060      C2061   1.403       .  A
C2060      H2065   1.082       .  S
C2061      C2062   1.416       .  A
C2062      C2063   1.524       .  S
C2063      F2067   1.381       .  S
C2063      F2844   1.382       .  S
C2063      F2845   1.385       .  S
C2066      F2070   1.383       .  S
C2066      F2071   1.383       .  S
C2066      F2072   1.385       .  S
F2068      C2839   1.382       .  S
F2069      C2839   1.385       .  S
C2073      C2074   1.407       .  A
C2073      C2078   1.406       .  A
C2073      H2080   1.083       .  S
C2074      C2075   1.422       .  A
C2075      C2076   1.410       .  A
C2075      C2082   1.519       .  S
C2076      C2077   1.403       .  A
C2076      H2081   1.082       .  S
C2077      C2078   1.415       .  A
C2078      C2079   1.521       .  S
C2079      F2083   1.382       .  S
C2079      F2084   1.384       .  S
C2079      F2085   1.383       .  S
C2082      F2086   1.383       .  S
C2082      F2087   1.383       .  S
C2082      F2088   1.385       .  S
C2089      C2090   1.403       .  A
C2089      C2094   1.406       .  A
C2089      H2096   1.080       .  S
C2090      C2091   1.416       .  A
C2091      C2092   1.403       .  A
C2091      C2098   1.522       .  S
C2092      C2093   1.406       .  A
C2092      H2097   1.082       .  S
C2093      C2094   1.420       .  A
C2094      C2095   1.520       .  S
C2095      F2099   1.384       .  S
C2095      F2100   1.383       .  S
C2095      F2101   1.383       .  S
C2098      F2102   1.382       .  S
C2098      F2103   1.385       .  S
C2098      F2104   1.381       .  S
C2105      C2106   1.406       .  A
C2105      C2110   1.409       .  A
C2105      H2112   1.083       .  S
C2106      C2107   1.417       .  A
C2107      C2108   1.405       .  A
C2107      C2114   1.516       .  S
C2108      C2109   1.401       .  A
C2108      H2113   1.084       .  S
C2109      C2110   1.414       .  A
C2110      C2111   1.518       .  S
C2111      F2115   1.384       .  S
C2111      F2116   1.383       .  S
C2111      F2117   1.384       .  S
C2114      F2894   1.382       .  S
C2114      F2119   1.385       .  S
C2114      F2120   1.378       .  S
F2118      C2890   1.379       .  S
C2121      C2122   1.402       .  A
C2121      C2126   1.403       .  A
C2121      H2128   1.080       .  S
C2122      C2123   1.419       .  A
C2123      C2124   1.407       .  A
C2124      C2125   1.401       .  A
C2124      H2129   1.083       .  S
C2125      C2126   1.412       .  A
C2126      C2127   1.518       .  S
C2127      F2131   1.385       .  S
C2127      F2132   1.383       .  S
C2127      F2133   1.383       .  S
C2130      F2134   1.381       .  S
C2130      F2135   1.382       .  S
C2130      F2136   1.384       .  S
C2137      C2138   1.406       .  A
C2137      C2142   1.405       .  A
C2137      H2144   1.083       .  S
C2138      C2139   1.418       .  A
C2139      C2140   1.408       .  A
C2139      C2146   1.519       .  S
C2140      C2141   1.403       .  A
C2140      H2145   1.080       .  S
C2141      C2142   1.417       .  A
C2143      F2147   1.381       .  S
C2143      F2148   1.382       .  S
C2143      F2149   1.385       .  S
C2146      F2150   1.384       .  S
C2146      F2151   1.383       .  S
C2146      F2152   1.385       .  S
C2153      C2154   1.401       .  A
C2153      C2158   1.407       .  A
C2153      H2160   1.084       .  S
C2154      C2155   1.414       .  A
C2155      C2156   1.406       .  A
C2155      C2162   1.518       .  S
C2156      C2157   1.404       .  A
C2156      H2161   1.081       .  S
C2157      C2158   1.419       .  A
C2158      C2159   1.519       .  S
C2159      F2163   1.385       .  S
C2159      F2164   1.381       .  S
C2159      F2165   1.377       .  S
C2162      F2166   1.382       .  S
C2162      F2167   1.383       .  S
C2162      F2168   1.385       .  S
C2169      C2170   1.405       .  A
C2169      C2174   1.400       .  A
C2169      H2176   1.084       .  S
C2170      C2171   1.417       .  A
C2171      C2172   1.408       .  A
C2171      C2178   1.518       .  S
C2172      C2173   1.405       .  A
C2172      H2177   1.082       .  S
C2173      C2174   1.417       .  A
C2174      C2175   1.521       .  S
C2175      F2179   1.384       .  S
C2175      F2180   1.383       .  S
C2175      F2181   1.379       .  S
C2178      F2182   1.384       .  S
C2178      F2183   1.382       .  S
C2178      F2184   1.385       .  S
C2185      C2186   1.399       .  A
C2185      C2190   1.403       .  A
C2185      H2192   1.085       .  S
C2186      C2187   1.414       .  A
C2187      C2188   1.408       .  A
C2187      C2194   1.518       .  S
C2188      C2189   1.405       .  A
C2188      H2193   1.082       .  S
C2189      C2190   1.421       .  A
C2190      C2191   1.519       .  S
C2191      F2195   1.383       .  S
C2191      F2196   1.383       .  S
C2191      F2197   1.378       .  S
C2194      F2198   1.382       .  S
C2194      F2199   1.383       .  S
C2201      C2202   1.400       .  A
C2201      C2206   1.404       .  A
C2201      H2208   1.083       .  S
C2202      C2203   1.415       .  A
C2203      C2204   1.403       .  A
C2203      C2210   1.522       .  S
C2204      C2205   1.405       .  A
C2204      H2209   1.083       .  S
C2205      C2206   1.422       .  A
C2206      C2207   1.521       .  S
C2207      F2211   1.385       .  S
C2207      F2212   1.383       .  S
C2207      F2213   1.383       .  S
C2210      F2214   1.381       .  S
C2210      F2215   1.381       .  S
C2210      F2216   1.384       .  S
C2217      C2218   1.402       .  A
C2217      C2222   1.405       .  A
C2217      H2224   1.082       .  S
C2218      C2219   1.420       .  A
C2219      C2220   1.405       .  A
C2219      C2226   1.521       .  S
C2220      C2221   1.401       .  A
C2220      H2225   1.085       .  S
C2221      C2222   1.413       .  A
C2222      C2223   1.517       .  S
C2223      F2227   1.384       .  S
C2223      F2228   1.384       .  S
C2223      F2229   1.382       .  S
C2226      F2230   1.384       .  S
C2226      F2231   1.381       .  S
C2226      F2232   1.383       .  S
C2233      C2234   1.400       .  A
C2233      C2238   1.405       .  A
C2233      H2240   1.085       .  S
C2234      C2235   1.417       .  A
C2235      C2236   1.406       .  A
C2235      C2242   1.518       .  S
C2236      C2237   1.405       .  A
C2236      H2241   1.083       .  S
C2237      C2238   1.422       .  A
C2238      C2239   1.519       .  S
C2239      F2243   1.384       .  S
C2239      F2244   1.383       .  S
C2239      F2245   1.381       .  S
C2242      F2246   1.383       .  S
C2242      F2247   1.382       .  S
C2242      F2248   1.384       .  S
C2249      C2250   1.408       .  A
C2249      C2254   1.407       .  A
C2249      H2256   1.082       .  S
C2250      C2251   1.427       .  A
C2251      C2252   1.408       .  A
C2251      C2258   1.522       .  S
C2252      C2253   1.401       .  A
C2252      H2257   1.079       .  S
C2253      C2254   1.418       .  A
C2254      C2255   1.522       .  S
C2255      F2259   1.381       .  S
C2255      F2260   1.383       .  S
C2255      F2261   1.384       .  S
C2258      F2262   1.383       .  S
C2258      F2263   1.384       .  S
C2258      F2264   1.385       .  S
C2265      C2266   1.404       .  A
C2265      C2270   1.400       .  A
C2265      H2272   1.085       .  S
C2266      C2267   1.419       .  A
C2267      C2268   1.411       .  A
C2267      C2274   1.519       .  S
C2268      C2269   1.406       .  A
C2268      H2273   1.081       .  S
C2269      C2270   1.420       .  A
C2271      F2275   1.384       .  S
C2271      F2276   1.382       .  S
C2271      F2277   1.379       .  S
C2274      F2278   1.382       .  S
C2274      F2279   1.384       .  S
C2274      F2280   1.385       .  S
C2281      C2282   1.403       .  A
C2281      C2286   1.404       .  A
C2281      H2288   1.079       .  S
C2282      C2283   1.419       .  A
C2283      C2284   1.409       .  A
C2283      C2290   1.522       .  S
C2284      C2285   1.403       .  A
C2284      H2289   1.083       .  S
C2285      C2286   1.412       .  A
C2286      C2287   1.518       .  S
C2287      F2291   1.384       .  S
C2287      F2292   1.384       .  S
C2287      F2293   1.382       .  S
C2290      F2294   1.382       .  S
C2290      F2295   1.382       .  S
C2290      F2296   1.385       .  S
C2297      C2298   1.401       .  A
C2297      C2302   1.403       .  A
C2297      H2304   1.083       .  S
C2298      C2299   1.414       .  A
C2299      C2300   1.405       .  A
C2299      C2306   1.517       .  S
C2300      C2301   1.404       .  A
C2300      H2305   1.082       .  S
C2301      C2302   1.416       .  A
C2302      C2303   1.518       .  S
C2303      F2307   1.385       .  S
C2303      F2308   1.384       .  S
C2303      F2309   1.382       .  S
C2306      F2310   1.379   1_655  S
C2306      F2311   1.383       .  S
C2306      F2312   1.384       .  S
C2313      C2314   1.401       .  A
C2313      C2318   1.403       .  A
C2313      H2320   1.082       .  S
C2314      C2315   1.420       .  A
C2315      C2316   1.403       .  A
C2315      C2322   1.519       .  S
C2316      C2317   1.399       .  A
C2316      H2321   1.085       .  S
C2317      C2318   1.415       .  A
C2318      C2319   1.517       .  S
C2319      F2323   1.385       .  S
C2319      F2324   1.382       .  S
C2319      F2325   1.383       .  S
C2322      F2326   1.383       .  S
C2322      F2327   1.381       .  S
C2322      F2328   1.384       .  S
Zn2329     O2333   1.947   1_554  S
Zn2329     O2334   2.003       .  S
Zn2329     O2338   2.014       .  S
Zn2329     O2345   2.013       .  S
Zn2330     O2333   1.960       .  S
Zn2330     O2335   2.045       .  S
Zn2330     O2337   2.021   1_556  S
Zn2330     O2341   2.000       .  S
Zn2331     O2333   1.951       .  S
Zn2331     O2336   2.026   1_556  S
Zn2331     O2339   2.002       .  S
Zn2331     O2342   2.023       .  S
Zn2332     O2333   1.958       .  S
Zn2332     O2340   2.007       .  S
Zn2332     O2343   2.027       .  S
Zn2332     O2344   2.031   1_556  S
O2334      C2346   1.272       .  A
O2335      C2347   1.275       .  A
O2336      C2348   1.274       .  A
O2337      C2346   1.275       .  A
O2338      C2348   1.272       .  A
O2339      C2347   1.272       .  A
O2340      C2349   1.273       .  A
O2341      C2350   1.271       .  A
O2342      C2349   1.275       .  A
O2343      C2350   1.274       .  A
O2344      C2351   1.273       .  A
O2345      C2351   1.274       .  A
C2346      C3077   1.475       .  S
C2347      C3042   1.488       .  S
C2348      C3061   1.476       .  S
C2349      C3010   1.466       .  S
C2350      C3093   1.472       .  S
C2351      C3026   1.496       .  S
Zn2352     O2356   1.948       .  S
Zn2352     O2357   2.015       .  S
Zn2352     O2361   2.020       .  S
Zn2352     O2368   2.020       .  S
Zn2353     O2356   1.950       .  S
Zn2353     O2358   2.017       .  S
Zn2353     O2360   2.021       .  S
Zn2353     O2364   2.029       .  S
Zn2354     O2356   1.951       .  S
Zn2354     O2359   2.007       .  S
Zn2354     O2362   2.025       .  S
Zn2354     O2365   1.988       .  S
Zn2355     O2356   1.949       .  S
Zn2355     O2363   2.022       .  S
Zn2355     O2366   2.000       .  S
Zn2355     O2367   2.025       .  S
O2357      C2369   1.274       .  A
O2358      C2370   1.273       .  A
O2359      C2371   1.272       .  A
O2360      C2369   1.275       .  A
O2361      C2371   1.275       .  A
O2362      C2370   1.273       .  A
O2363      C2372   1.273       .  A
O2364      C2373   1.275       .  A
O2365      C2372   1.271       .  A
O2366      C2373   1.273       .  A
O2367      C2374   1.273       .  A
O2368      C2374   1.273       .  A
C2369      C2962   1.471       .  S
C2370      C2997   1.474       .  S
C2371      C2981   1.478       .  S
C2372      C2946   1.483       .  S
C2373      C2914   1.481       .  S
C2374      C2930   1.479       .  S
N2375      C2380   1.350       .  A
N2375      C2379   1.348       .  A
N2375      H2407   1.043       .  S
N2376      C2384   1.350       .  A
N2377      C2382   1.349       .  A
N2377      C2381   1.351       .  A
N2377      H2408   1.042       .  S
N2378      C2386   1.347       .  A
C2379      C2387   1.386       .  A
C2379      C2395   1.408       .  A
C2380      C2396   1.408       .  A
C2380      C2388   1.385       .  A
C2381      C2389   1.386       .  A
C2381      C2398   1.409       .  A
C2382      C2397   1.409       .  A
C2382      C2390   1.386       .  A
C2383      C2395   1.407       .  A
C2383      C2391   1.386       .  A
C2384      C2398   1.411       .  A
C2384      C2392   1.385       .  A
C2385      C2393   1.385       .  A
C2385      C2396   1.409       .  A
C2386      C2394   1.386       .  A
C2386      C2397   1.408       .  A
C2387      C2388   1.379       .  A
C2387      H2399   1.082       .  S
C2388      H2400   1.082       .  S
C2389      C2390   1.378       .  A
C2389      H2401   1.082       .  S
C2390      H2402   1.082       .  S
C2391      H2403   1.082       .  S
C2392      H2404   1.081       .  S
C2393      H2405   1.081       .  S
C2394      H2406   1.082       .  S
C2395      C2497   1.479       .  S
C2396      C2504   1.486       .  S
C2397      C2481   1.480       .  S
C2398      C2521   1.488       .  S
N2409      C2414   1.353       .  A
N2409      C2413   1.351       .  A
N2409      H2441   1.041       .  S
N2410      C2417   1.349       .  A
N2410      C2418   1.350       .  A
N2411      C2416   1.351       .  A
N2411      C2415   1.353       .  A
N2411      H2442   1.041       .  S
N2412      C2419   1.352       .  A
N2412      C2420   1.350       .  A
C2413      C2421   1.387       .  A
C2413      C2429   1.412       .  A
C2414      C2430   1.411       .  A
C2414      C2422   1.385       .  A
C2415      C2423   1.385       .  A
C2415      C2432   1.412       .  A
C2416      C2431   1.412       .  A
C2416      C2424   1.387       .  A
C2417      C2429   1.410       .  A
C2417      C2425   1.386       .  A
C2418      C2432   1.411       .  A
C2418      C2426   1.385       .  A
C2419      C2427   1.385       .  A
C2419      C2430   1.413       .  A
C2420      C2428   1.386       .  A
C2420      C2431   1.414       .  A
C2421      C2422   1.379       .  A
C2421      H2433   1.082       .  S
C2422      H2434   1.082       .  S
C2423      C2424   1.378       .  A
C2423      H2435   1.082       .  S
C2424      H2436   1.082       .  S
C2425      C2426   1.378       .  A
C2425      H2437   1.082       .  S
C2426      H2438   1.082       .  S
C2427      C2428   1.380       .  A
C2427      H2439   1.081       .  S
C2428      H2440   1.082       .  S
C2429      C2512   1.486       .  S
C2430      C2488   1.495       .  S
C2431      C2480   1.488       .  S
C2432      C2520   1.491       .  S
N2443      C2448   1.350       .  A
N2443      C2447   1.351       .  A
N2443      H2475   1.041       .  S
N2444      C2452   1.349       .  A
N2445      C2450   1.350       .  A
N2445      C2449   1.349       .  A
N2445      H2476   1.041       .  S
N2446      C2454   1.347       .  A
C2447      C2455   1.386       .  A
C2447      C2463   1.409       .  A
C2448      C2464   1.409       .  A
C2448      C2456   1.386       .  A
C2449      C2457   1.386       .  A
C2449      C2466   1.407       .  A
C2450      C2465   1.407       .  A
C2450      C2458   1.386       .  A
C2451      C2463   1.410       .  A
C2451      C2459   1.385       .  A
C2452      C2466   1.410       .  A
C2452      C2460   1.386       .  A
C2453      C2461   1.386       .  A
C2453      C2464   1.408       .  A
C2454      C2462   1.386       .  A
C2454      C2465   1.407       .  A
C2455      C2456   1.378       .  A
C2455      H2467   1.082       .  S
C2456      H2468   1.082       .  S
C2457      C2458   1.377       .  A
C2457      H2469   1.082       .  S
C2458      H2470   1.082       .  S
C2459      H2471   1.082       .  S
C2460      H2472   1.082       .  S
C2461      H2473   1.082       .  S
C2462      H2474   1.081       .  S
C2463      C2496   1.487       .  S
C2464      C2505   1.482       .  S
C2465      C2489   1.479       .  S
C2466      C2513   1.484       .  S
C2477      C2917   1.485       .  S
C2477      C2482   1.400       .  A
C2478      C2898   1.479       .  S
C2478      C2479   1.404       .  A
C2479      C2480   1.400       .  A
C2479      H2484   1.084       .  S
C2481      C2482   1.399       .  A
C2482      H2483   1.084       .  S
C2485      C2882   1.486       .  S
C2485      C2490   1.401       .  A
C2486      C2949   1.479       .  S
C2486      C2487   1.408       .  A
C2487      C2488   1.398       .  A
C2487      H2492   1.084       .  S
C2489      C2490   1.400       .  A
C2490      H2491   1.084       .  S
C2493      C2866   1.483       .  S
C2493      C2494   1.414       .  A
C2493      C2498   1.399       .  A
C2494      C3090   1.476       .  S
C2494      C2495   1.403       .  A
C2495      C2496   1.399       .  A
C2495      H2500   1.084       .  S
C2496      C2497   1.413       .  A
C2497      C2498   1.397       .  A
C2498      H2499   1.084       .  S
C2501      C2994   1.486       .  S
C2501      C2502   1.418       .  A
C2501      C2506   1.402       .  A
C2502      C2853   1.482       .  S
C2502      C2503   1.404       .  A
C2503      C2504   1.397       .  A
C2503      H2508   1.084       .  S
C2504      C2505   1.412       .  A
C2505      C2506   1.399       .  A
C2506      H2507   1.084       .  S
C2509      C2837   1.484       .  S
C2509      C2514   1.401       .  A
C2510      C3013   1.487       .  S
C2510      C2511   1.404       .  A
C2511      C2512   1.399       .  A
C2511      H2516   1.083       .  S
C2513      C2514   1.396       .  A
C2514      H2515   1.084       .  S
C2517      C3045   1.487       .  S
C2517      C2522   1.405       .  A
C2518      C2818   1.484       .  S
C2518      C2519   1.406       .  A
C2519      C2520   1.400       .  A
C2519      H2524   1.084       .  S
C2521      C2522   1.402       .  A
C2522      H2523   1.084       .  S
Zn2525     O2529   1.964       .  S
Zn2525     O2530   2.014       .  S
Zn2525     O2534   2.050       .  S
Zn2525     O2541   2.030       .  S
Zn2526     O2529   1.951       .  S
Zn2526     O2531   1.990       .  S
Zn2526     O2533   2.018       .  S
Zn2526     O2537   2.024       .  S
Zn2527     O2529   1.956       .  S
Zn2527     O2532   2.013       .  S
Zn2527     O2535   2.030       .  S
Zn2527     O2538   2.029       .  S
Zn2528     O2529   1.951       .  S
Zn2528     O2536   2.014       .  S
Zn2528     O2539   2.017       .  S
Zn2528     O2540   2.003       .  S
O2530      C2542   1.274       .  A
O2531      C2543   1.270       .  A
O2532      C2544   1.273       .  A
O2533      C2542   1.273       .  A
O2534      C2544   1.277       .  A
O2535      C2543   1.275       .  A
O2536      C2545   1.273       .  A
O2537      C2546   1.273       .  A
O2538      C2545   1.275       .  A
O2539      C2546   1.272       .  A
O2540      C2547   1.272       .  A
O2541      C2547   1.276       .  A
C2542      C2850   1.482       .  S
C2543      C2901   1.468       .  S
C2544      C2885   1.486       .  S
C2545      C2789   1.478       .  S
C2546      C2773   1.480       .  S
C2547      C2802   1.475       .  S
Zn2548     O2552   1.947   1_556  S
Zn2548     O2553   2.021       .  S
Zn2548     O2557   2.005       .  S
Zn2548     O2564   2.019   1_556  S
Zn2549     O2552   1.947   1_556  S
Zn2549     O2554   2.024       .  S
Zn2549     O2556   2.000       .  S
Zn2549     O2560   2.014   1_556  S
Zn2550     O2552   1.947   1_556  S
Zn2550     O2555   2.018       .  S
Zn2550     O2558   2.001       .  S
Zn2550     O2561   2.009   1_556  S
Zn2551     O2552   1.939       .  S
Zn2551     O2559   2.002       .  S
Zn2551     O2562   2.004       .  S
Zn2551     O2563   2.008       .  S
O2553      C2565   1.273       .  A
O2554      C2566   1.274       .  A
O2555      C2567   1.273       .  A
O2556      C2565   1.273       .  A
O2557      C2567   1.274       .  A
O2558      C2566   1.272       .  A
O2559      C2568   1.271       .  A
O2560      C2569   1.273       .  A
O2561      C2568   1.272       .  A
O2562      C2569   1.272       .  A
O2563      C2570   1.274       .  A
O2564      C2570   1.272       .  A
C2565      C2834   1.483       .  S
C2566      C2821   1.477       .  S
C2567      C2869   1.481       .  S
C2568      C2722   1.468       .  S
C2569      C2738   1.472       .  S
C2570      C2754   1.490       .  S
N2571      C2576   1.350       .  A
N2571      C2575   1.350       .  A
N2571      H2603   1.041       .  S
N2572      C2580   1.347       .  A
N2573      C2578   1.350       .  A
N2573      C2577   1.351       .  A
N2573      H2604   1.041       .  S
N2574      C2582   1.348   1_455  A
C2575      C2583   1.386       .  A
C2575      C2591   1.409       .  A
C2576      C2592   1.409       .  A
C2576      C2584   1.386       .  A
C2577      C2585   1.386       .  A
C2577      C2594   1.411       .  A
C2578      C2593   1.409       .  A
C2578      C2586   1.386       .  A
C2579      C2591   1.406       .  A
C2579      C2587   1.385       .  A
C2580      C2594   1.409       .  A
C2580      C2588   1.386       .  A
C2581      C2589   1.386       .  A
C2581      C2592   1.409       .  A
C2582      C2590   1.386       .  A
C2582      C2593   1.408       .  A
C2583      C2584   1.379       .  A
C2583      H2595   1.082       .  S
C2584      H2596   1.082       .  S
C2585      C2586   1.379       .  A
C2585      H2597   1.082       .  S
C2586      H2598   1.082       .  S
C2587      H2599   1.082       .  S
C2588      H2600   1.082       .  S
C2589      H2601   1.081       .  S
C2590      H2602   1.082       .  S
C2591      C2692   1.483       .  S
C2592      C2700   1.484       .  S
C2593      C2684   1.482       .  S
C2594      C2642   1.484       .  S
N2605      C2610   1.352       .  A
N2605      C2609   1.351       .  A
N2605      H2637   1.042       .  S
N2606      C2613   1.349       .  A
N2606      C2614   1.349       .  A
N2607      C2612   1.351       .  A
N2607      C2611   1.352       .  A
N2607      H2638   1.041       .  S
N2608      C2615   1.350       .  A
N2608      C2616   1.349       .  A
C2609      C2617   1.386       .  A
C2609      C2625   1.412       .  A
C2610      C2626   1.412       .  A
C2610      C2618   1.385       .  A
C2611      C2619   1.386       .  A
C2611      C2628   1.413       .  A
C2612      C2627   1.412       .  A
C2612      C2620   1.386       .  A
C2613      C2625   1.411       .  A
C2613      C2621   1.386       .  A
C2614      C2628   1.411       .  A
C2614      C2622   1.386       .  A
C2615      C2623   1.385       .  A
C2615      C2626   1.411       .  A
C2616      C2624   1.385       .  A
C2616      C2627   1.411       .  A
C2617      C2618   1.380       .  A
C2617      H2629   1.082       .  S
C2618      H2630   1.082       .  S
C2619      C2620   1.380       .  A
C2619      H2631   1.082       .  S
C2620      H2632   1.082       .  S
C2621      C2622   1.378       .  A
C2621      H2633   1.082       .  S
C2622      H2634   1.082       .  S
C2623      C2624   1.378       .  A
C2623      H2635   1.080       .  S
C2624      H2636   1.081       .  S
C2625      C2717   1.489       .  S
C2626      C2709   1.492       .  S
C2627      C2643   1.488       .  S
C2628      C2685   1.489       .  S
C2639      C2805   1.480       .  S
C2639      C2644   1.404       .  A
C2640      C2933   1.491       .  S
C2640      C2641   1.402       .  A
C2641      C2642   1.400       .  A
C2641      H2646   1.084       .  S
C2643      C2644   1.399       .  A
C2644      H2645   1.084       .  S
N2647      C2652   1.350       .  A
N2647      C2651   1.350       .  A
N2647      H2679   1.041       .  S
N2648      C2656   1.348       .  A
N2649      C2654   1.351       .  A
N2649      C2653   1.351       .  A
N2649      H2680   1.041       .  S
N2650      C2658   1.348       .  A
C2651      C2659   1.386       .  A
C2651      C2667   1.409       .  A
C2652      C2668   1.409       .  A
C2652      C2660   1.386       .  A
C2653      C2661   1.385       .  A
C2653      C2670   1.410       .  A
C2654      C2669   1.411       .  A
C2654      C2662   1.386       .  A
C2655      C2667   1.408       .  A
C2655      C2663   1.386       .  A
C2656      C2670   1.408       .  A
C2656      C2664   1.386       .  A
C2657      C2665   1.386       .  A
C2657      C2668   1.408       .  A
C2658      C2666   1.385       .  A
C2658      C2669   1.409       .  A
C2659      C2660   1.379       .  A
C2659      H2671   1.082       .  S
C2660      H2672   1.082       .  S
C2661      C2662   1.378       .  A
C2661      H2673   1.082       .  S
C2662      H2674   1.081       .  S
C2663      H2675   1.081       .  S
C2664      H2676   1.082       .  S
C2665      H2677   1.082       .  S
C2666      H2678   1.081       .  S
C2667      C2716   1.482       .  S
C2668      C2708   1.482       .  S
C2669      C2693   1.486       .  S
C2670      C2701   1.485       .  S
C2681      C2757   1.487       .  S
C2681      C2686   1.404       .  A
C2682      C3058   1.488       .  S
C2682      C2683   1.403       .  A
C2683      C2684   1.400       .  A
C2683      H2688   1.084       .  S
C2685      C2686   1.400       .  A
C2686      H2687   1.084       .  S
C2689      C2978   1.477       .  S
C2689      C2690   1.415       .  A
C2689      C2694   1.402       .  A
C2690      C2770   1.485       .  S
C2690      C2691   1.403       .  A
C2691      C2692   1.400       .  A
C2691      H2696   1.084       .  S
C2692      C2693   1.413       .  A
C2693      C2694   1.398       .  A
C2694      H2695   1.084       .  S
C2697      C3029   1.488       .  S
C2697      C2698   1.414       .  A
C2697      C2702   1.404       .  A
C2698      C2725   1.474       .  S
C2698      C2699   1.401       .  A
C2699      C2700   1.396       .  A
C2699      H2704   1.085       .  S
C2700      C2701   1.414       .  A
C2701      C2702   1.401       .  A
C2702      H2703   1.084       .  S
C2705      C2965   1.486       .  S
C2705      C2710   1.408       .  A
C2706      C2786   1.489       .  S
C2706      C2707   1.401       .  A
C2707      C2708   1.400       .  A
C2707      H2712   1.084       .  S
C2709      C2710   1.402       .  A
C2710      H2711   1.084       .  S
C2713      C3074   1.477       .  S
C2713      C2718   1.404       .  A
C2714      C2741   1.482       .  S
C2714      C2715   1.400       .  A
C2715      C2716   1.396       .  A
C2715      H2720   1.085       .  S
C2717      C2718   1.400       .  A
C2718      H2719   1.084       .  S
C2721      C2722   1.401       .  A
C2721      C2726   1.401       .  A
C2721      H2728   1.085       .  S
C2722      C2723   1.413       .  A
C2723      C2724   1.404       .  A
C2723      C2730   1.518       .  S
C2724      C2725   1.402       .  A
C2724      H2729   1.081       .  S
C2725      C2726   1.419       .  A
C2726      C2727   1.521       .  S
C2727      F2731   1.383       .  S
C2727      F2732   1.383       .  S
C2727      F2733   1.381       .  S
C2730      F2734   1.382       .  S
C2730      F2735   1.383       .  S
C2730      F2736   1.385       .  S
C2737      C2738   1.402       .  A
C2737      C2742   1.405       .  A
C2737      H2744   1.084       .  S
C2738      C2739   1.414       .  A
C2739      C2740   1.405       .  A
C2739      C2746   1.518       .  S
C2740      C2741   1.404       .  A
C2740      H2745   1.083       .  S
C2741      C2742   1.416       .  A
C2743      F2747   1.383       .  S
C2743      F2748   1.379       .  S
C2743      F2749   1.383       .  S
C2746      F2750   1.383       .  S
C2746      F2751   1.383       .  S
C2746      F2752   1.384       .  S
C2753      C2754   1.407       .  A
C2753      C2758   1.406       .  A
C2753      H2760   1.083       .  S
C2754      C2755   1.424       .  A
C2755      C2756   1.406       .  A
C2755      C2762   1.521       .  S
C2756      C2757   1.401       .  A
C2756      H2761   1.079       .  S
C2757      C2758   1.417       .  A
C2758      C2759   1.522       .  S
C2759      F2763   1.385       .  S
C2759      F2764   1.381       .  S
C2759      F2765   1.380       .  S
C2762      F2766   1.383       .  S
C2762      F2767   1.383       .  S
C2762      F2768   1.385       .  S
C2769      C2770   1.403       .  A
C2769      C2774   1.407       .  A
C2769      H2776   1.081       .  S
C2770      C2771   1.417       .  A
C2771      C2772   1.407       .  A
C2771      C2778   1.520       .  S
C2772      C2773   1.403       .  A
C2772      H2777   1.082       .  S
C2773      C2774   1.416       .  A
C2774      C2775   1.518       .  S
C2775      F2779   1.385       .  S
C2775      F2780   1.383       .  S
C2775      F2781   1.382       .  S
C2778      F2782   1.384       .  S
C2778      F2783   1.380       .  S
C2778      F2784   1.382       .  S
C2785      C2786   1.405       .  A
C2785      C2790   1.409       .  A
C2785      H2792   1.082       .  S
C2786      C2787   1.417       .  A
C2787      C2788   1.405       .  A
C2787      C2794   1.517       .  S
C2788      C2789   1.401       .  A
C2788      H2793   1.083       .  S
C2789      C2790   1.417       .  A
C2790      C2791   1.518       .  S
C2791      F2795   1.385       .  S
C2791      F2796   1.383       .  S
C2791      F2797   1.382       .  S
C2794      F2798   1.377       .  S
C2794      F2799   1.382       .  S
C2794      F2800   1.385       .  S
C2801      C2802   1.403       .  A
C2801      C2806   1.405       .  A
C2801      H2808   1.085       .  S
C2802      C2803   1.415       .  A
C2803      C2804   1.405       .  A
C2803      C2810   1.518       .  S
C2804      C2805   1.403       .  A
C2804      H2809   1.082       .  S
C2805      C2806   1.418       .  A
C2806      C2807   1.520       .  S
C2807      F2811   1.383       .  S
C2807      F2812   1.381       .  S
C2807      F2813   1.383       .  S
C2810      F2814   1.383       .  S
C2810      F2815   1.382       .  S
C2817      C2818   1.403       .  A
C2817      C2822   1.406       .  A
C2817      H2824   1.082       .  S
C2818      C2819   1.417       .  A
C2819      C2820   1.406       .  A
C2819      C2826   1.518       .  S
C2820      C2821   1.403       .  A
C2820      H2825   1.083       .  S
C2821      C2822   1.416       .  A
C2822      C2823   1.519       .  S
C2823      F2827   1.384       .  S
C2823      F2828   1.384       .  S
C2823      F2829   1.383       .  S
C2826      F2830   1.378       .  S
C2826      F2831   1.385       .  S
C2826      F2832   1.382       .  S
C2833      C2834   1.405       .  A
C2833      C2838   1.403       .  A
C2833      H2840   1.083       .  S
C2834      C2835   1.420       .  A
C2835      C2836   1.408       .  A
C2835      C2842   1.519       .  S
C2836      C2837   1.403       .  A
C2836      H2841   1.083       .  S
C2837      C2838   1.418       .  A
C2838      C2839   1.524       .  S
C2839      F2843   1.381       .  S
C2842      F2846   1.384       .  S
C2842      F2847   1.383       .  S
C2842      F2848   1.385       .  S
C2849      C2850   1.405       .  A
C2849      C2854   1.406       .  A
C2849      H2856   1.083       .  S
C2850      C2851   1.419       .  A
C2851      C2852   1.407       .  A
C2851      C2858   1.520       .  S
C2852      C2853   1.402       .  A
C2852      H2857   1.080       .  S
C2853      C2854   1.418       .  A
C2854      C2855   1.523       .  S
C2855      F2859   1.381       .  S
C2855      F2860   1.385       .  S
C2855      F2861   1.380       .  S
C2858      F2862   1.382       .  S
C2858      F2863   1.384       .  S
C2858      F2864   1.385       .  S
C2865      C2866   1.403       .  A
C2865      C2870   1.407       .  A
C2865      H2872   1.081       .  S
C2866      C2867   1.416       .  A
C2867      C2868   1.403       .  A
C2867      C2874   1.522       .  S
C2868      C2869   1.404       .  A
C2868      H2873   1.082       .  S
C2869      C2870   1.419       .  A
C2870      C2871   1.520       .  S
C2871      F2875   1.385       .  S
C2871      F2876   1.384       .  S
C2871      F2877   1.383       .  S
C2874      F2878   1.383       .  S
C2874      F2879   1.385       .  S
C2874      F2880   1.381       .  S
C2881      C2882   1.405       .  A
C2881      C2886   1.411       .  A
C2881      H2888   1.083       .  S
C2882      C2883   1.418       .  A
C2883      C2884   1.406       .  A
C2883      C2890   1.520       .  S
C2884      C2885   1.404       .  A
C2884      H2889   1.085       .  S
C2885      C2886   1.418       .  A
C2886      C2887   1.518       .  S
C2887      F2891   1.385       .  S
C2887      F2892   1.382       .  S
C2887      F2893   1.384       .  S
C2890      F2895   1.384       .  S
C2890      F2896   1.382       .  S
C2897      C2898   1.399       .  A
C2897      C2902   1.399       .  A
C2897      H2904   1.080       .  S
C2898      C2899   1.419       .  A
C2899      C2900   1.409       .  A
C2900      C2901   1.402       .  A
C2900      H2905   1.083       .  S
C2901      C2902   1.413       .  A
C2902      C2903   1.517       .  S
C2903      F2907   1.385       .  S
C2903      F2908   1.382       .  S
C2903      F2909   1.383       .  S
C2906      F2910   1.383       .  S
C2906      F2911   1.381       .  S
C2906      F2912   1.384       .  S
C2913      C2914   1.405       .  A
C2913      C2918   1.404       .  A
C2913      H2920   1.083       .  S
C2914      C2915   1.418       .  A
C2915      C2916   1.409       .  A
C2915      C2922   1.519       .  S
C2916      C2917   1.404       .  A
C2916      H2921   1.081       .  S
C2917      C2918   1.416       .  A
C2919      F2923   1.381       .  S
C2919      F2924   1.382       .  S
C2919      F2925   1.384       .  S
C2922      F2926   1.384       .  S
C2922      F2927   1.383       .  S
C2922      F2928   1.385       .  S
C2929      C2930   1.402       .  A
C2929      C2934   1.408       .  A
C2929      H2936   1.083       .  S
C2930      C2931   1.415       .  A
C2931      C2932   1.408       .  A
C2931      C2938   1.518       .  S
C2932      C2933   1.405       .  A
C2932      H2937   1.082       .  S
C2933      C2934   1.419       .  A
C2934      C2935   1.518       .  S
C2935      F2939   1.381       .  S
C2935      F2940   1.376       .  S
C2935      F2941   1.384       .  S
C2938      F2942   1.382       .  S
C2938      F2943   1.384       .  S
C2938      F2944   1.384       .  S
C2945      C2946   1.407       .  A
C2945      C2950   1.401       .  A
C2945      H2952   1.084       .  S
C2946      C2947   1.419       .  A
C2947      C2948   1.405       .  A
C2947      C2954   1.520       .  S
C2948      C2949   1.403       .  A
C2948      H2953   1.080       .  S
C2949      C2950   1.417       .  A
C2950      C2951   1.524       .  S
C2951      F2955   1.384       .  S
C2951      F2956   1.382       .  S
C2951      F2957   1.381       .  S
C2954      F2958   1.384       .  S
C2954      F2959   1.383       .  S
C2954      F2960   1.385       .  S
C2961      C2962   1.398       .  A
C2961      C2966   1.403       .  A
C2961      H2968   1.085       .  S
C2962      C2963   1.412       .  A
C2963      C2964   1.408       .  A
C2963      C2970   1.517       .  S
C2964      C2965   1.407       .  A
C2964      H2969   1.081       .  S
C2965      C2966   1.423       .  A
C2966      C2967   1.520       .  S
C2967      F2971   1.384       .  S
C2967      F2972   1.383       .  S
C2967      F2973   1.379       .  S
C2970      F2974   1.383       .  S
C2970      F2975   1.384       .  S
C2977      C2978   1.401       .  A
C2977      C2982   1.406       .  A
C2977      H2984   1.081       .  S
C2978      C2979   1.419       .  A
C2979      C2980   1.403       .  A
C2979      C2986   1.519       .  S
C2980      C2981   1.401       .  A
C2980      H2985   1.085       .  S
C2981      C2982   1.420       .  A
C2982      C2983   1.521       .  S
C2983      F2987   1.385       .  S
C2983      F2988   1.382       .  S
C2983      F2989   1.384       .  S
C2986      F2990   1.380       .  S
C2986      F2991   1.383       .  S
C2986      F2992   1.383       .  S
C2993      C2994   1.402       .  A
C2993      C2998   1.406       .  A
C2993      H3000   1.078       .  S
C2994      C2995   1.420       .  A
C2995      C2996   1.409       .  A
C2995      C3002   1.521       .  S
C2996      C2997   1.402       .  A
C2996      H3001   1.083       .  S
C2997      C2998   1.414       .  A
C2998      C2999   1.518       .  S
C2999      F3003   1.384       .  S
C2999      F3004   1.383       .  S
C2999      F3005   1.383       .  S
C3002      F3006   1.384       .  S
C3002      F3007   1.382       .  S
C3002      F3008   1.382       .  S
C3009      C3010   1.401       .  A
C3009      C3014   1.407       .  A
C3009      H3016   1.084       .  S
C3010      C3011   1.415       .  A
C3011      C3012   1.401       .  A
C3011      C3018   1.519       .  S
C3012      C3013   1.402       .  A
C3012      H3017   1.081       .  S
C3013      C3014   1.420       .  A
C3014      C3015   1.521       .  S
C3015      F3019   1.385       .  S
C3015      F3020   1.381       .  S
C3015      F3021   1.383       .  S
C3018      F3022   1.383       .  S
C3018      F3023   1.382       .  S
C3018      F3024   1.383       .  S
C3025      C3026   1.409       .  A
C3025      C3030   1.406       .  A
C3025      H3032   1.082       .  S
C3026      C3027   1.425       .  A
C3027      C3028   1.409       .  A
C3027      C3034   1.520       .  S
C3028      C3029   1.402       .  A
C3028      H3033   1.081       .  S
C3029      C3030   1.415       .  A
C3030      C3031   1.522       .  S
C3031      F3035   1.380       .  S
C3031      F3036   1.381       .  S
C3031      F3037   1.385       .  S
C3034      F3038   1.382       .  S
C3034      F3039   1.383       .  S
C3034      F3040   1.385       .  S
C3041      C3042   1.405       .  A
C3041      C3046   1.403       .  A
C3041      H3048   1.085       .  S
C3042      C3043   1.419       .  A
C3043      C3044   1.412       .  A
C3043      C3050   1.519       .  S
C3044      C3045   1.406       .  A
C3044      H3049   1.082       .  S
C3045      C3046   1.418       .  A
C3047      F3051   1.383       .  S
C3047      F3052   1.384       .  S
C3047      F3053   1.379       .  S
C3050      F3054   1.382       .  S
C3050      F3055   1.383       .  S
C3050      F3056   1.385       .  S
C3057      C3058   1.404       .  A
C3057      C3062   1.407       .  A
C3057      H3064   1.081       .  S
C3058      C3059   1.420       .  A
C3059      C3060   1.408       .  A
C3059      C3066   1.522       .  S
C3060      C3061   1.402       .  A
C3060      H3065   1.083       .  S
C3061      C3062   1.414       .  A
C3062      C3063   1.517       .  S
C3063      F3067   1.385       .  S
C3063      F3068   1.384       .  S
C3063      F3069   1.383       .  S
C3066      F3070   1.381       .  S
C3066      F3071   1.381       .  S
C3066      F3072   1.385       .  S
C3073      C3074   1.403       .  A
C3073      C3078   1.405       .  A
C3073      H3080   1.083       .  S
C3074      C3075   1.418       .  A
C3075      C3076   1.403       .  A
C3075      C3082   1.519       .  S
C3076      C3077   1.402       .  A
C3076      H3081   1.083       .  S
C3077      C3078   1.415       .  A
C3078      C3079   1.518       .  S
C3079      F3083   1.384       .  S
C3079      F3084   1.384       .  S
C3079      F3085   1.383       .  S
C3082      F3086   1.379       .  S
C3082      F3087   1.384       .  S
C3082      F3088   1.383       .  S
C3089      C3090   1.400       .  A
C3089      C3094   1.404       .  A
C3089      H3096   1.083       .  S
C3090      C3091   1.420       .  A
C3091      C3092   1.404       .  A
C3091      C3098   1.520       .  S
C3092      C3093   1.400       .  A
C3092      H3097   1.085       .  S
C3093      C3094   1.416       .  A
C3094      C3095   1.518       .  S
C3095      F3099   1.385       .  S
C3095      F3100   1.382       .  S
C3095      F3101   1.383       .  S
C3098      F3102   1.383       .  S
C3098      F3103   1.381       .  S
C3098      F3104   1.384       .  S
