geometry optimzed in LAMMPS
_audit_creation_date              2020-11-30 
_audit_creation_method            'lammps2cif' 
_symmetry_space_group_name_H-M    'P1' 
_symmetry_Int_Tables_number       1 
_symmetry_cell_setting            triclinic 
loop_ 
_symmetry_equiv_pos_as_xyz 
  x,y,z 
_cell_length_a                    80.86198657 
_cell_length_b                    80.4144131460737 
_cell_length_c                    35.02574940326733 
_cell_angle_alpha                 89.56728030874257 
_cell_angle_beta                  91.49393789049081 
_cell_angle_gamma                 89.74188074330647 
loop_ 
_atom_site_label 
_atom_site_type_symbol 
_atom_site_fract_x 
_atom_site_fract_y 
_atom_site_fract_z 
_atom_site_charge 
C1          C  0.51398467  0.91913981  0.28757844     0.86500
C2          C  0.49685623  0.91600262  0.26862364    -0.53700
C3          C  0.48366083  0.92222494  0.28798146     0.09400
C4          C  0.48897908  0.93060471  0.32604744     0.20400
C5          C  0.51432588  0.93795749  0.29479086    -0.54400
C6          C  0.50121970  0.94403448  0.31381989     0.09500
C7          C  0.51279449  0.91175953  0.32826412    -0.54000
C8          C  0.49984339  0.91783403  0.34842919     0.10100
H9          H  0.49551079  0.91049476  0.24051381     0.14600
H10         H  0.47863056  0.93544386  0.34299044     0.00400
H11         H  0.52413802  0.94599114  0.28491642     0.14900
H12         H  0.52187537  0.90379847  0.34228886     0.14700
C13         C  0.47737711  0.92152148  0.69487032     0.86500
C14         C  0.49421590  0.91798361  0.71451478    -0.53700
C15         C  0.50752019  0.92276876  0.69399194     0.09400
C16         C  0.50282575  0.92975426  0.65405392     0.20400
C17         C  0.47789604  0.93999102  0.68308565    -0.54400
C18         C  0.49112177  0.94433643  0.66188094     0.09500
C19         C  0.47821775  0.91227516  0.65643638    -0.54000
C20         C  0.49141527  0.91677625  0.63482062     0.10100
H21         H  0.49547584  0.91334474  0.74366541     0.14600
H22         H  0.51360760  0.93333891  0.63682896     0.00400
H23         H  0.46878640  0.94902087  0.69208582     0.14900
H24         H  0.46879671  0.90398151  0.64527871     0.14700
C25         C  0.47858694  0.09133479  0.29579270     0.86500
C26         C  0.49513921  0.09622270  0.27830926    -0.53700
C27         C  0.50891204  0.09039782  0.29773443     0.09400
C28         C  0.50474724  0.08165598  0.33584415     0.20400
C29         C  0.47975160  0.07251125  0.30284766    -0.54400
C30         C  0.49318060  0.06745948  0.32403245     0.09500
C31         C  0.47963842  0.09880124  0.33621369    -0.54000
C32         C  0.49330081  0.09371373  0.35723509     0.10100
H33         H  0.49586123  0.10264165  0.25103358     0.14600
H34         H  0.51559973  0.07723771  0.35315699     0.00400
H35         H  0.47060278  0.06380602  0.29174703     0.14900
H36         H  0.47033981  0.10678302  0.34830153     0.14700
C37         C  0.51885768  0.09049023  0.70713350     0.86500
C38         C  0.50174475  0.09493578  0.72268981    -0.53700
C39         C  0.48853770  0.08916178  0.70143116     0.09400
C40         C  0.49380655  0.08060011  0.66422717     0.20400
C41         C  0.51842112  0.07173128  0.69960631    -0.54400
C42         C  0.50536526  0.06647423  0.67786513     0.09500
C43         C  0.51838654  0.09818989  0.66645898    -0.54000
C44         C  0.50524307  0.09301444  0.64412124     0.10100
H45         H  0.50020739  0.10147055  0.74925228     0.14600
H46         H  0.48342016  0.07633050  0.64552001     0.00400
H47         H  0.52785176  0.06319082  0.71078306     0.14900
H48         H  0.52760918  0.10645264  0.65513458     0.14700
C49         C  0.92343746  0.47448629  0.29057494     0.86500
C50         C  0.91919054  0.49167727  0.27310760    -0.53700
C51         C  0.92546762  0.50505614  0.29299263     0.09400
C52         C  0.93544320  0.49952757  0.32940344     0.20400
C53         C  0.94230616  0.47445603  0.29521257    -0.54400
C54         C  0.94867158  0.48736977  0.31538383     0.09500
C55         C  0.91734478  0.47553042  0.33220031    -0.54000
C56         C  0.92391232  0.48847158  0.35284033     0.10100
H57         H  0.91288132  0.49271716  0.24559388     0.14600
H58         H  0.94036492  0.50994455  0.34626930     0.00400
H59         H  0.95008527  0.46493958  0.28293522     0.14900
H60         H  0.90931028  0.46659345  0.34544966     0.14700
C61         C  0.91621873  0.50797704  0.70437746     0.86500
C62         C  0.90918214  0.49189124  0.72162946    -0.53700
C63         C  0.91358554  0.47759940  0.70338874     0.09400
C64         C  0.92411913  0.48090708  0.66798827     0.20400
C65         C  0.93492688  0.50467441  0.70214355    -0.54400
C66         C  0.93903558  0.49058412  0.68364081     0.09500
C67         C  0.91054440  0.50793252  0.66178227    -0.54000
C68         C  0.91461284  0.49373408  0.64239756     0.10100
H69         H  0.90315101  0.49180359  0.74895377     0.14600
H70         H  0.92749866  0.46930990  0.65315761     0.00400
H71         H  0.94428795  0.51298262  0.71393775     0.14900
H72         H  0.90617729  0.51884404  0.64657149     0.14700
C73         C  0.09542966  0.51104771  0.28337077     0.86500
C74         C  0.10003626  0.49414464  0.26560520    -0.53700
C75         C  0.09452072  0.48055674  0.28525816     0.09400
C76         C  0.08496803  0.48506135  0.32136491     0.20400
C77         C  0.07652814  0.50990830  0.28646733    -0.54400
C78         C  0.07111070  0.49649126  0.30619936     0.09500
C79         C  0.10199599  0.50994191  0.32497180    -0.54000
C80         C  0.09633276  0.49657819  0.34532518     0.10100
H81         H  0.10487290  0.49254520  0.23747897     0.14600
H82         H  0.08021970  0.47413199  0.33714823     0.00400
H83         H  0.06803185  0.51910105  0.27407745     0.14900
H84         H  0.10952310  0.51963304  0.33793625     0.14700
C85         C  0.08544315  0.51553432  0.69158433     0.86500
C86         C  0.09237046  0.51357367  0.65165216    -0.53700
C87         C  0.08783956  0.49924844  0.63312389     0.09400
C88         C  0.07622227  0.48815526  0.65744730     0.20400
C89         C  0.06670488  0.51373702  0.68569878    -0.54400
C90         C  0.06156740  0.49938220  0.66872543     0.09500
C91         C  0.09046459  0.49942773  0.71341096    -0.54000
C92         C  0.08553996  0.48506588  0.69588043     0.10100
H93         H  0.09936147  0.52346466  0.63862061     0.14600
H94         H  0.07250813  0.47637589  0.64367196     0.00400
H95         H  0.05809769  0.52293651  0.69619481     0.14900
H96         H  0.09530390  0.49917170  0.74244635     0.14700
C97         C  0.94106185  0.36816964  0.15189656    -0.02500
C98         C  0.93702273  0.37208394  0.85655242    -0.02500
C99         C  0.06678144  0.37717365  0.13422373    -0.02500
C100        C  0.06020363  0.37826787  0.83852485    -0.02500
C101        C  0.37348328  0.93800370  0.13815397    -0.02500
C102        C  0.37598976  0.93886612  0.84936675    -0.02500
C103        C  0.37734618  0.06704146  0.13366312    -0.02500
C104        C  0.38559544  0.06519378  0.85353079    -0.02500
C105        C  0.61698631  0.93052994  0.13162527    -0.02500
C106        C  0.61768965  0.93983003  0.83840378    -0.02500
C107        C  0.61343815  0.05641964  0.15988507    -0.02500
C108        C  0.62037153  0.06774284  0.87295228    -0.02500
O109        O  0.90558232  0.25338056  0.29450302    -0.57800
C110        C  0.90037988  0.22621182  0.36967630     0.74800
O111        O  0.89289911  0.19397321  0.28101459    -0.58900
C112        C  0.90275503  0.25713754  0.25982121     0.74800
C113        C  0.93651186  0.21311133  0.26606302     0.77200
Cd114      Cd  0.90354112  0.22285531  0.28805636     1.37500
O115        O  0.91407618  0.22291881  0.35468231    -0.57800
O116        O  0.92665237  0.22069097  0.24325534    -0.56600
C117        C  0.87856828  0.19773915  0.26846523     0.77200
O118        O  0.93066984  0.20895708  0.29788489    -0.59000
O119        O  0.88819530  0.22819606  0.34665561    -0.57400
O120        O  0.89930751  0.24502763  0.23806670    -0.57400
O121        O  0.87605916  0.21310550  0.26248218    -0.56600
O122        O  0.73076044  0.09615478  0.29282628    -0.57800
C123        C  0.76139510  0.09438559  0.37875982     0.74800
O124        O  0.77240018  0.06773171  0.25897145    -0.58900
C125        C  0.72841067  0.08805504  0.26238317     0.74800
C126        C  0.78441768  0.11609027  0.27191013     0.77200
Cd127      Cd  0.76114865  0.09087941  0.29663025     1.37500
O128        O  0.77167574  0.08532718  0.36179093    -0.57800
O129        O  0.76939921  0.11965135  0.27722215    -0.56600
C130        C  0.77003087  0.05658828  0.28401145     0.77200
O131        O  0.78824645  0.10091254  0.27535313    -0.59000
O132        O  0.75099162  0.10209952  0.35752205    -0.57400
O133        O  0.74120912  0.08302431  0.24601061    -0.57400
O134        O  0.76392285  0.06149245  0.31492703    -0.56600
O135        O  0.90077368  0.24519831  0.78887007    -0.57800
C136        C  0.89791082  0.22172398  0.65747042     0.74800
O137        O  0.92973762  0.21645207  0.77970359    -0.58900
C138        C  0.90478721  0.25721960  0.76752262     0.74800
C139        C  0.87781934  0.20172702  0.76668988     0.77200
Cd140      Cd  0.90414665  0.22332119  0.73924957     1.37500
O141        O  0.89347981  0.23404859  0.67715246    -0.57800
O142        O  0.87489369  0.21545333  0.74998548    -0.56600
C143        C  0.93927468  0.21540823  0.75167712     0.77200
O144        O  0.89299388  0.19828873  0.77242593    -0.59000
O145        O  0.90481542  0.20987308  0.67593106    -0.57400
O146        O  0.90733263  0.25362551  0.73312795    -0.57400
O147        O  0.93233156  0.21691914  0.71909171    -0.56600
O148        O  0.76418563  0.10347837  0.68805969    -0.57800
C149        C  0.73445234  0.09088640  0.78296232     0.74800
O150        O  0.78203315  0.06169181  0.73683049    -0.58900
C151        C  0.76164696  0.09093530  0.66712376     0.74800
C152        C  0.79208445  0.11144401  0.77228554     0.77200
Cd153      Cd  0.76657138  0.08756957  0.74914407     1.37500
O154        O  0.73647013  0.09172276  0.74728984    -0.57800
O155        O  0.77684424  0.11470921  0.77493151    -0.56600
C156        C  0.77551615  0.05292136  0.76246425     0.77200
O157        O  0.79542166  0.09687536  0.76149915    -0.59000
O158        O  0.74748947  0.08946611  0.80361780    -0.57400
O159        O  0.76093641  0.07711620  0.68434724    -0.57400
O160        O  0.76588979  0.06056330  0.78429060    -0.56600
O161        O  0.90473648  0.72778772  0.71992682    -0.57800
C162        C  0.89897983  0.75419939  0.63764217     0.74800
O163        O  0.89035502  0.78614348  0.73442126    -0.58900
C164        C  0.90245676  0.72543502  0.75519344     0.74800
C165        C  0.93440604  0.76893559  0.74215201     0.77200
Cd166      Cd  0.90136764  0.75814491  0.72004569     1.37500
O167        O  0.88707584  0.75036638  0.65872357    -0.57800
O168        O  0.92608161  0.77598666  0.71548864    -0.56600
C169        C  0.87566376  0.78186583  0.74084719     0.77200
O170        O  0.92699675  0.75763306  0.76012541    -0.59000
O171        O  0.91180645  0.75955988  0.65473352    -0.57400
O172        O  0.89856723  0.73821528  0.77398738    -0.57400
O173        O  0.87288366  0.76641095  0.73944844    -0.56600
O174        O  0.73146134  0.89684460  0.71045235    -0.57800
C175        C  0.76217383  0.89382037  0.63835812     0.74800
O176        O  0.76866362  0.92005287  0.76175553    -0.58900
C177        C  0.72795670  0.89870607  0.74508118     0.74800
C178        C  0.78501011  0.86903245  0.74335425     0.77200
Cd179      Cd  0.76206163  0.89579744  0.72020253     1.37500
O180        O  0.75393118  0.88368135  0.65806706    -0.57800
O181        O  0.77104904  0.86612429  0.72783650    -0.56600
C182        C  0.77361598  0.92926849  0.73486458     0.77200
O183        O  0.78773449  0.88410428  0.75103301    -0.59000
O184        O  0.77019427  0.90475436  0.65673093    -0.57400
O185        O  0.74007507  0.89792202  0.76866231    -0.57400
O186        O  0.77394415  0.92262313  0.70230312    -0.56600
O187        O  0.90353039  0.73168132  0.27351278    -0.57800
C188        C  0.89505823  0.75970279  0.34942991     0.74800
O189        O  0.92656482  0.77323959  0.28684196    -0.58900
C190        C  0.90093243  0.72806310  0.23884875     0.74800
C191        C  0.87293177  0.78449444  0.24118865     0.77200
Cd192      Cd  0.89938139  0.76182326  0.26760126     1.37500
O193        O  0.88873007  0.74916013  0.32679406    -0.57800
O194        O  0.87010858  0.76997619  0.25335836    -0.56600
C195        C  0.93351622  0.77134620  0.25522972     0.77200
O196        O  0.88804664  0.78820390  0.23868680    -0.59000
O197        O  0.90282111  0.77150044  0.33393302    -0.57400
O198        O  0.89690396  0.74011516  0.21692438    -0.57400
O199        O  0.92437781  0.76587172  0.22829559    -0.56600
O200        O  0.73289815  0.89740313  0.27029250    -0.57800
C201        C  0.76099661  0.89563952  0.35040497     0.74800
O202        O  0.79109909  0.89017876  0.24897544    -0.58900
C203        C  0.73006499  0.89723906  0.23460928     0.74800
C204        C  0.77228721  0.93335983  0.25244901     0.77200
Cd205      Cd  0.76317278  0.89915917  0.26811960     1.37500
O206        O  0.76009857  0.88316628  0.32868174    -0.57800
O207        O  0.76014118  0.92645108  0.23561979    -0.56600
C208        C  0.78753385  0.87517531  0.24239785     0.77200
O209        O  0.78081877  0.92410331  0.27482568    -0.59000
O210        O  0.76265929  0.90954282  0.33395711    -0.57400
O211        O  0.74273600  0.89697434  0.21403652    -0.57400
O212        O  0.77245147  0.87143186  0.24544745    -0.56600
O213        O  0.08407939  0.23156775  0.64849667    -0.57800
C214        C  0.09407694  0.26511478  0.74138202     0.74800
O215        O  0.07173875  0.22863265  0.76073163    -0.58900
C216        C  0.09782270  0.23206968  0.63221052     0.74800
C217        C  0.12244583  0.20964747  0.74064552     0.77200
Cd218      Cd  0.09492283  0.23097508  0.71525669     1.37500
O219        O  0.10216115  0.25406450  0.75992656    -0.57800
O220        O  0.12368536  0.22531913  0.73961721    -0.56600
C221        C  0.06319728  0.21832575  0.74161366     0.77200
O222        O  0.10824885  0.20395390  0.73215673    -0.59000
O223        O  0.08721286  0.26054856  0.71036471    -0.57400
O224        O  0.11039785  0.23255833  0.65439688    -0.57400
O225        O  0.06987940  0.21289883  0.71186086    -0.56600
O226        O  0.26764381  0.10460983  0.71931974    -0.57800
C227        C  0.23627553  0.10159951  0.63605889     0.74800
O228        O  0.22676759  0.07603941  0.75749475    -0.58900
C229        C  0.27068343  0.09951650  0.75298190     0.74800
C230        C  0.21617649  0.12724244  0.74344016     0.77200
Cd231      Cd  0.23749721  0.09992847  0.71901652     1.37500
O232        O  0.24876583  0.10625075  0.65563243    -0.57800
O233        O  0.23011206  0.12987743  0.72905458    -0.56600
C234        C  0.22943763  0.06513543  0.73245160     0.77200
O235        O  0.21240824  0.11212029  0.74780386    -0.59000
O236        O  0.22400830  0.09682141  0.65503875    -0.57400
O237        O  0.25817225  0.09581544  0.77219398    -0.57400
O238        O  0.23509958  0.07053270  0.70143819    -0.56600
O239        O  0.09703523  0.24800406  0.20967112    -0.57800
C240        C  0.10158350  0.22681127  0.34429578     0.74800
O241        O  0.06914828  0.21579473  0.22893007    -0.58900
C242        C  0.09203431  0.26032157  0.22859849     0.74800
C243        C  0.12065967  0.20520824  0.23940282     0.77200
Cd244      Cd  0.09435954  0.22725791  0.26311052     1.37500
O245        O  0.10606695  0.23878106  0.32326750    -0.57800
O246        O  0.12347619  0.21895732  0.25553120    -0.56600
C247        C  0.06013280  0.21663274  0.25795943     0.77200
O248        O  0.10560375  0.20213772  0.23156576    -0.59000
O249        O  0.09435138  0.21493430  0.32731862    -0.57400
O250        O  0.08885646  0.25729578  0.26303193    -0.57400
O251        O  0.06717811  0.22186599  0.28804999    -0.56600
O252        O  0.25937629  0.08354767  0.27055758    -0.57800
C253        C  0.23220863  0.09229585  0.34783683     0.74800
O254        O  0.20164737  0.09857136  0.24471801    -0.58900
C255        C  0.26254283  0.08739934  0.23648432     0.74800
C256        C  0.21923415  0.05535694  0.24656710     0.77200
Cd257      Cd  0.22949330  0.08866700  0.26567121     1.37500
O258        O  0.23649282  0.10393791  0.32566556    -0.57800
O259        O  0.22640387  0.06445790  0.22248367    -0.56600
C260        C  0.20536563  0.11373646  0.24107112     0.77200
O261        O  0.21591232  0.06217329  0.27790942    -0.59000
O262        O  0.22679278  0.07933653  0.33179070    -0.57400
O263        O  0.25049651  0.09283513  0.21612208    -0.57400
O264        O  0.22046444  0.11719281  0.24686154    -0.56600
O265        O  0.25767641  0.90392859  0.71950499    -0.57800
C266        C  0.22927657  0.90315357  0.64490638     0.74800
O267        O  0.19938403  0.89489170  0.73445387    -0.58900
C268        C  0.26140615  0.90459390  0.75477464     0.74800
C269        C  0.22008000  0.94032243  0.74489840     0.77200
Cd270      Cd  0.22755770  0.90599834  0.72685411     1.37500
O271        O  0.23152864  0.89064508  0.66668519    -0.57800
O272        O  0.21340335  0.93295334  0.71676107    -0.56600
C273        C  0.20341845  0.88130363  0.75056206     0.77200
O274        O  0.22900968  0.93133798  0.76700008    -0.59000
O275        O  0.22669887  0.91680922  0.66134592    -0.57400
O276        O  0.24935241  0.90450819  0.77717804    -0.57400
O277        O  0.21868294  0.87945124  0.75823701    -0.56600
O278        O  0.09672596  0.73650820  0.72711685    -0.57800
C279        C  0.09661331  0.76667474  0.64880372     0.74800
O280        O  0.06803475  0.77521196  0.76584384    -0.58900
C281        C  0.09345864  0.73314780  0.76134387     0.74800
C282        C  0.11807941  0.79031870  0.75404650     0.77200
Cd283      Cd  0.09295099  0.76648474  0.73018771     1.37500
O284        O  0.08931299  0.77828818  0.66596082    -0.57800
O285        O  0.12169028  0.77545304  0.74601447    -0.56600
C286        C  0.05800402  0.77325554  0.73782042     0.77200
O287        O  0.10281819  0.79379239  0.75353483    -0.59000
O288        O  0.10277440  0.75520516  0.66970648    -0.57400
O289        O  0.09149828  0.74550531  0.78303792    -0.57400
O290        O  0.06432558  0.76856366  0.70710481    -0.56600
O291        O  0.26381318  0.89382028  0.27714125    -0.57800
C292        C  0.23173495  0.89422250  0.35766557     0.74800
O293        O  0.22000150  0.92081239  0.24118945    -0.58900
C294        C  0.26593936  0.89453038  0.24152867     0.74800
C295        C  0.20897947  0.87218349  0.25412628     0.77200
Cd296      Cd  0.23360012  0.89679439  0.27536538     1.37500
O297        O  0.24279405  0.88664848  0.33959130    -0.57800
O298        O  0.22387145  0.86798422  0.26119483    -0.56600
C299        C  0.22719083  0.93177667  0.26135421     0.77200
O300        O  0.20601643  0.88762396  0.25363993    -0.59000
O301        O  0.22147003  0.90256122  0.33745072    -0.57400
O302        O  0.25286695  0.89486961  0.22074381    -0.57400
O303        O  0.23743709  0.92638888  0.28636133    -0.56600
O304        O  0.10235046  0.75709033  0.34221077    -0.57800
C305        C  0.09130729  0.73077639  0.25341555     0.74800
O306        O  0.06612852  0.76436969  0.23680035    -0.58900
C307        C  0.09214667  0.76552927  0.36093760     0.74800
C308        C  0.11855706  0.78655942  0.25894616     0.77200
Cd309      Cd  0.09110004  0.76503967  0.27875296     1.37500
O310        O  0.09840776  0.74212346  0.23470028    -0.57800
O311        O  0.11995207  0.77467122  0.28254488    -0.56600
C312        C  0.05790854  0.77496643  0.25507138     0.77200
O313        O  0.10451506  0.78813038  0.24240052    -0.59000
O314        O  0.08498169  0.73521026  0.28437959    -0.57400
O315        O  0.08126982  0.77342962  0.34150393    -0.57400
O316        O  0.06566658  0.78229670  0.28187310    -0.56600
C317        C  0.94310438  0.61541489  0.15354744    -0.02500
C318        C  0.93763189  0.61180117  0.86121152    -0.02500
C319        C  0.07000007  0.61612582  0.14076817    -0.02500
C320        C  0.06436416  0.61623718  0.85073402    -0.02500
C321        C  0.07197001  0.61449205  0.09665147    -0.19900
C322        C  0.08768676  0.61609937  0.07964198     0.36400
C323        C  0.08892807  0.61617507  0.03962338    -0.25800
C324        C  0.07495299  0.61368551  0.01600568     0.02800
C325        C  0.05981240  0.60960215  0.03245068     0.27600
C326        C  0.05841996  0.61024967  0.07218959    -0.25000
N327        N  0.10231137  0.61847847  0.10285596    -0.82300
H328        H  0.10077686  0.61857227  0.02696486     0.13400
C329        C  0.07584367  0.61585473  0.97412676     0.02800
N330        N  0.04602425  0.60426549  0.00877092    -0.80900
H331        H  0.04662883  0.60691647  0.08372359     0.18200
C332        C  0.08300231  0.60352419  0.95194002    -0.25800
C333        C  0.08143094  0.60389058  0.91171330     0.36300
C334        C  0.07082512  0.61607325  0.89351886    -0.19800
C335        C  0.06572545  0.62955030  0.91645797    -0.25000
C336        C  0.06833789  0.62968578  0.95609104     0.27600
H337        H  0.08966392  0.59342787  0.96618700     0.13400
N338        N  0.09041629  0.59180411  0.89037075    -0.82300
H339        H  0.05865408  0.63968671  0.90359630     0.18300
N340        N  0.06332122  0.64381065  0.97809844    -0.80900
H341        H  0.09675029  0.58344020  0.90853692     0.33900
H342        H  0.09945233  0.59803786  0.87516982     0.38400
H343        H  0.05849830  0.65321131  0.96021908     0.33800
H344        H  0.05375538  0.64023023  0.99578507     0.30500
H345        H  0.03599959  0.60097355  0.02546081     0.33900
H346        H  0.04199720  0.61424521  0.99167215     0.30500
H347        H  0.11060599  0.60886881  0.09704724     0.38400
H348        H  0.10774450  0.62970122  0.09483053     0.33900
C349        C  0.95645774  0.61118580  0.84986503    -0.19900
C350        C  0.96641602  0.59669119  0.85683114     0.36400
C351        C  0.98359691  0.59725506  0.85250743    -0.25800
C352        C  0.99143422  0.61179136  0.84065803     0.02800
C353        C  0.98161220  0.62557142  0.82885955     0.27600
C354        C  0.96435589  0.62470104  0.83163888    -0.25000
N355        N  0.95933534  0.58161939  0.87092393    -0.82300
H356        H  0.99099603  0.58640659  0.86023687     0.13400
C357        C  0.00978187  0.61240688  0.84335172     0.02800
N358        N  0.98856909  0.64085286  0.81501902    -0.80900
H359        H  0.95743974  0.63513491  0.82005117     0.18200
C360        C  0.01903257  0.61320368  0.81022363    -0.25800
C361        C  0.03636813  0.61431285  0.81219532     0.36300
C362        C  0.04501130  0.61446687  0.84824538    -0.19800
C363        C  0.03537418  0.61238803  0.88124836    -0.25000
C364        C  0.01802470  0.61180188  0.87917709     0.27600
H365        H  0.01270949  0.61328799  0.78255530     0.13400
N366        N  0.04514772  0.61571390  0.77732824    -0.82300
H367        H  0.04109426  0.61085394  0.90917163     0.18300
N368        N  0.00867843  0.61053271  0.91348467    -0.80900
H369        H  0.04251213  0.60522029  0.76085151     0.33900
H370        H  0.04069202  0.62617947  0.76236613     0.38400
H371        H  0.01653652  0.61007845  0.93766157     0.33800
H372        H  0.00162873  0.62140254  0.91563656     0.30500
H373        H  0.98532850  0.65027332  0.83388539     0.33900
H374        H  0.00145161  0.64053232  0.81529375     0.30500
H375        H  0.96180333  0.57214761  0.85156731     0.38400
H376        H  0.96517801  0.57851168  0.89701054     0.33900
C377        C  0.96269125  0.61526759  0.15641478    -0.19900
C378        C  0.97166928  0.61768818  0.19155339     0.36400
C379        C  0.98909025  0.61837198  0.19241186    -0.25800
C380        C  0.99809557  0.61560658  0.15947665     0.02800
C381        C  0.98953445  0.61078574  0.12588208     0.27600
C382        C  0.97226836  0.61066211  0.12465971    -0.25000
N383        N  0.96320979  0.61965144  0.22657236    -0.82300
H384        H  0.99560975  0.62113529  0.21902287     0.13400
C385        C  0.01639001  0.61728396  0.16032408     0.02800
N386        N  0.99805695  0.60511372  0.09297598    -0.80900
H387        H  0.96656126  0.60628821  0.09841302     0.18200
C388        C  0.02632155  0.60647958  0.18260877    -0.25800
C389        C  0.04369071  0.60655591  0.17996435     0.36300
C390        C  0.05131289  0.61670087  0.15182495    -0.19800
C391        C  0.04118055  0.62908539  0.13406986    -0.25000
C392        C  0.02402752  0.62947890  0.13814974     0.27600
H393        H  0.02056786  0.59788992  0.20214899     0.13400
N394        N  0.05325016  0.59705364  0.20740056    -0.82300
H395        H  0.04647774  0.63807354  0.11497624     0.18300
N396        N  0.01434989  0.64225317  0.11941167    -0.80900
H397        H  0.04937546  0.58467419  0.20604453     0.33900
H398        H  0.05062132  0.60145451  0.23458745     0.38400
H399        H  0.01850896  0.65373197  0.12957087     0.33800
H400        H  0.01662465  0.64186391  0.09018232     0.30500
H401        H  0.00524958  0.61471978  0.08225984     0.33900
H402        H  0.00586993  0.59527124  0.10131004     0.30500
H403        H  0.96713737  0.61016084  0.24529473     0.38400
H404        H  0.96670464  0.63100648  0.23862978     0.33900
C405        C  0.93757872  0.61429812  0.11020516    -0.19900
C406        C  0.92786727  0.60154539  0.09250758     0.36400
C407        C  0.92649881  0.60079078  0.05235546    -0.25800
C408        C  0.93329499  0.61316231  0.02935816     0.02800
C409        C  0.94038073  0.62724528  0.04655046     0.27600
C410        C  0.94262800  0.62755872  0.08629591    -0.25000
N411        N  0.91863745  0.58985626  0.11430532    -0.82300
H412        H  0.92005882  0.59046664  0.03904942     0.13400
C413        C  0.93383958  0.61109168  0.98742978     0.02800
N414        N  0.94512380  0.64128777  0.02361037    -0.80900
H415        H  0.94911249  0.63802707  0.09878072     0.18200
C416        C  0.91983844  0.61438736  0.96434360    -0.25800
C417        C  0.92057551  0.61421416  0.92409706     0.36300
C418        C  0.93600357  0.61116036  0.90601088    -0.19800
C419        C  0.95002786  0.60857778  0.93067097    -0.25000
C420        C  0.94888711  0.60738526  0.97038750     0.27600
H421        H  0.90829869  0.61733136  0.97787211     0.13400
N422        N  0.90577428  0.61778369  0.90181882    -0.82300
H423        H  0.96232206  0.60771705  0.92016172     0.18300
N424        N  0.96300483  0.60214864  0.99351365    -0.80900
H425        H  0.89591825  0.62062703  0.91940555     0.33900
H426        H  0.90235833  0.60706970  0.88707566     0.38400
H427        H  0.97296212  0.59904203  0.97643888     0.33800
H428        H  0.96693752  0.61205734  0.01045952     0.30500
H429        H  0.94954259  0.65092136  0.04088977     0.33900
H430        H  0.95492694  0.63777421  0.00657568     0.30500
H431        H  0.92217519  0.57786594  0.10638005     0.38400
H432        H  0.90611047  0.59132566  0.10685041     0.33900
C433        C  0.09016762  0.71337011  0.23945902    -0.19900
C434        C  0.07775786  0.70239332  0.25205271     0.36400
C435        C  0.07670315  0.68631308  0.23673689    -0.25800
C436        C  0.08789679  0.68072049  0.20962677     0.02800
C437        C  0.10041840  0.69157290  0.19740156     0.27600
C438        C  0.10132168  0.70779872  0.21216618    -0.25000
N439        N  0.06596159  0.70768691  0.27954140    -0.82300
H440        H  0.06684536  0.67814472  0.24545637     0.13400
C441        C  0.08545463  0.66394430  0.19237935     0.02800
N442        N  0.11213465  0.68608107  0.16996284    -0.80900
H443        H  0.11086570  0.71611418  0.20243835     0.18200
C444        C  0.08319825  0.66288136  0.15270748    -0.25800
C445        C  0.07883720  0.64791564  0.13469539     0.36300
C446        C  0.07670485  0.63306838  0.15680702    -0.19800
C447        C  0.07806792  0.63472525  0.19698008    -0.25000
C448        C  0.08337819  0.64940639  0.21469773     0.27600
H449        H  0.08407553  0.67405546  0.13538141     0.13400
N450        N  0.07539387  0.64855695  0.09438398    -0.82300
H451        H  0.07535944  0.62419612  0.21518471     0.18300
N452        N  0.08656624  0.64895964  0.25532144    -0.80900
H453        H  0.08601524  0.65271097  0.08090301     0.33900
H454        H  0.06603027  0.65733839  0.08896635     0.38400
H455        H  0.09545843  0.63970231  0.26084352     0.33800
H456        H  0.09204926  0.65993524  0.26485881     0.30500
H457        H  0.12049139  0.69555863  0.16380994     0.33900
H458        H  0.11903400  0.67637133  0.18251960     0.30500
H459        H  0.05858957  0.71695303  0.26660201     0.38400
H460        H  0.05800465  0.69796329  0.28646609     0.33900
C461        C  0.19560536  0.85974032  0.24858084    -0.19900
C462        C  0.17914707  0.86330301  0.25892082     0.36400
C463        C  0.16713022  0.85075128  0.25663486    -0.25800
C464        C  0.17113827  0.83474941  0.24435527     0.02800
C465        C  0.18729642  0.83131670  0.23233239     0.27600
C466        C  0.19943753  0.84380833  0.23499450    -0.25000
N467        N  0.17478234  0.87943197  0.27311351    -0.82300
H468        H  0.15465350  0.85328614  0.26565239     0.13400
C469        C  0.15842110  0.82157846  0.24657305     0.02800
N470        N  0.19121742  0.81530324  0.21686524    -0.80900
H471        H  0.21195285  0.84108600  0.22656268     0.18200
C472        C  0.14615414  0.82038284  0.21770207    -0.25800
C473        C  0.13314381  0.80885274  0.22048856     0.36300
C474        C  0.13249287  0.79824417  0.25281108    -0.19800
C475        C  0.14497195  0.79941195  0.28142997    -0.25000
C476        C  0.15773714  0.81114582  0.27897408     0.27600
H477        H  0.14662481  0.82865737  0.19319841     0.13400
N478        N  0.12058518  0.80799859  0.19078911    -0.82300
H479        H  0.14442290  0.79156695  0.30664772     0.18300
N480        N  0.16947460  0.81313552  0.31017612    -0.80900
H481        H  0.12271160  0.81685789  0.16949481     0.33900
H482        H  0.12159623  0.79635902  0.17794189     0.38400
H483        H  0.16688023  0.80493218  0.33251090     0.33800
H484        H  0.18116075  0.80983912  0.30065797     0.30500
H485        H  0.20353754  0.81493295  0.20854834     0.33900
H486        H  0.19012201  0.80639651  0.23848157     0.30500
H487        H  0.18096706  0.88094168  0.29944170     0.38400
H488        H  0.16213937  0.88007379  0.27851019     0.33900
C489        C  0.09121565  0.71572589  0.77450509    -0.19900
C490        C  0.08707256  0.70296463  0.74825437     0.36400
C491        C  0.08372406  0.68692090  0.76190283    -0.25800
C492        C  0.08423485  0.68334061  0.80100287     0.02800
C493        C  0.08859710  0.69583267  0.82729951     0.27600
C494        C  0.09206306  0.71194986  0.81378821    -0.25000
N495        N  0.08566809  0.70639883  0.70793059    -0.82300
H496        H  0.08023560  0.67720682  0.74201089     0.13400
C497        C  0.07912771  0.66664210  0.81380153     0.02800
N498        N  0.08924277  0.69212978  0.86752802    -0.80900
H499        H  0.09517730  0.72164626  0.83400696     0.18200
C500        C  0.09107838  0.65497463  0.82535940    -0.25800
C501        C  0.08659447  0.63885765  0.83655022     0.36300
C502        C  0.06967056  0.63385855  0.83547601    -0.19800
C503        C  0.05778072  0.64626894  0.82507865    -0.25000
C504        C  0.06234043  0.66235851  0.81391970     0.27600
H505        H  0.10402820  0.65840770  0.82574932     0.13400
N506        N  0.09937672  0.62760055  0.84926174    -0.82300
H507        H  0.04471336  0.64399899  0.82688781     0.18300
N508        N  0.04993703  0.67450827  0.80307213    -0.80900
H509        H  0.10788311  0.62639450  0.82744077     0.33900
H510        H  0.10552012  0.63284513  0.87283425     0.38400
H511        H  0.03808619  0.66940063  0.80415448     0.33800
H512        H  0.05042911  0.68400934  0.82327633     0.30500
H513        H  0.09273786  0.70265378  0.88305400     0.33900
H514        H  0.07726001  0.68915343  0.87569413     0.30500
H515        H  0.07546097  0.71426841  0.70341823     0.38400
H516        H  0.08307712  0.69554274  0.69270671     0.33900
C517        C  0.09756691  0.76659369  0.60656393    -0.19900
C518        C  0.10233690  0.75229312  0.58612281     0.36400
C519        C  0.10231667  0.75289018  0.54599957    -0.25800
C520        C  0.09748593  0.76733339  0.52591310     0.02800
C521        C  0.09302567  0.78166050  0.54619946     0.27600
C522        C  0.09305587  0.78112210  0.58622662    -0.25000
N523        N  0.10678714  0.73711541  0.60587162    -0.82300
H524        H  0.10557507  0.74186498  0.53020168     0.13400
C525        C  0.09635797  0.76704502  0.48361668     0.02800
N526        N  0.08844999  0.79668977  0.52599316    -0.80900
H527        H  0.08948775  0.79215680  0.60160034     0.18200
C528        C  0.08112008  0.77058336  0.46524269    -0.25800
C529        C  0.07940109  0.77049230  0.42525427     0.36300
C530        C  0.09318600  0.76625708  0.40317844    -0.19800
C531        C  0.10839690  0.76254700  0.42174122    -0.25000
C532        C  0.11017882  0.76310178  0.46169530     0.27600
H533        H  0.07049956  0.77345274  0.48229694     0.13400
N534        N  0.06362031  0.77426317  0.40729043    -0.82300
H535        H  0.11903979  0.75946114  0.40496615     0.18300
N536        N  0.12597365  0.75982920  0.48009385    -0.80900
H537        H  0.05456559  0.77574645  0.42778917     0.33900
H538        H  0.06464242  0.78582672  0.39375013     0.38400
H539        H  0.13486095  0.75707734  0.45989349     0.33800
H540        H  0.12979273  0.77076875  0.49357475     0.30500
H541        H  0.08538564  0.80607572  0.54509680     0.33900
H542        H  0.09884508  0.80079757  0.51157380     0.30500
H543        H  0.09612599  0.73256600  0.61851028     0.38400
H544        H  0.11049092  0.72804078  0.58660048     0.33900
C545        C  0.22934947  0.90176162  0.60260731    -0.19900
C546        C  0.22972511  0.91591898  0.57824248     0.36400
C547        C  0.22961641  0.91374440  0.53844912    -0.25800
C548        C  0.22899238  0.89784532  0.52243966     0.02800
C549        C  0.22854352  0.88375760  0.54646598     0.27600
C550        C  0.22883241  0.88584373  0.58626217    -0.25000
N551        N  0.23050927  0.93242264  0.59370348    -0.82300
H552        H  0.23006213  0.92450958  0.51969957     0.13400
C553        C  0.22916387  0.89614608  0.48036760     0.02800
N554        N  0.22769245  0.86740144  0.53026583    -0.80900
H555        H  0.22844155  0.87494560  0.60457871     0.18200
C556        C  0.24271212  0.88842326  0.46363552    -0.25800
C557        C  0.24366723  0.88704659  0.42375384     0.36300
C558        C  0.23084029  0.89383821  0.40004284    -0.19800
C559        C  0.21711113  0.90127019  0.41715221    -0.25000
C560        C  0.21610381  0.90239992  0.45702185     0.27600
H561        H  0.25266897  0.88358178  0.48187650     0.13400
N562        N  0.25778327  0.87912046  0.40749962    -0.82300
H563        H  0.20713402  0.90636122  0.39936425     0.18300
N564        N  0.20191762  0.90991722  0.47395568    -0.80900
H565        H  0.26642545  0.87565439  0.42886403     0.33900
H566        H  0.25368486  0.86807251  0.39496903     0.38400
H567        H  0.19342047  0.91397183  0.45283335     0.33800
H568        H  0.19599197  0.90070245  0.48969452     0.30500
H569        H  0.22752156  0.85833590  0.55179645     0.33900
H570        H  0.21642338  0.86651530  0.51509486     0.30500
H571        H  0.21899222  0.93503279  0.60519295     0.38400
H572        H  0.23210625  0.94122120  0.57198475     0.33900
C573        C  0.19094389  0.86812617  0.75778324    -0.19900
C574        C  0.19430462  0.85413221  0.78158569     0.36400
C575        C  0.18249088  0.84132725  0.78397576    -0.25800
C576        C  0.16739566  0.84225236  0.76331958     0.02800
C577        C  0.16392466  0.85631139  0.74017176     0.27600
C578        C  0.17561635  0.86912233  0.73797240    -0.25000
N579        N  0.20964526  0.85290435  0.80310517    -0.82300
H580        H  0.18506161  0.83053304  0.80190430     0.13400
C581        C  0.15541846  0.82827987  0.76498023     0.02800
N582        N  0.14868598  0.85730962  0.71814715    -0.80900
H583        H  0.17293169  0.87970527  0.71948375     0.18200
C584        C  0.13949181  0.83121556  0.77846545    -0.25800
C585        C  0.12724931  0.81883193  0.77685053     0.36300
C586        C  0.13103481  0.80309423  0.76139216    -0.19800
C587        C  0.14723669  0.79998132  0.74949159    -0.25000
C588        C  0.15939387  0.81245108  0.75071636     0.27600
H589        H  0.13652867  0.84337532  0.78960969     0.13400
N590        N  0.11096431  0.82230848  0.79034063    -0.82300
H591        H  0.15025252  0.78800177  0.73748671     0.18300
N592        N  0.17557501  0.80929989  0.73622358    -0.80900
H593        H  0.11016890  0.83453803  0.80008435     0.33900
H594        H  0.10908585  0.81459483  0.81398071     0.38400
H595        H  0.17652522  0.79704126  0.72675911     0.33800
H596        H  0.17702329  0.81694724  0.71226938     0.30500
H597        H  0.14797776  0.86846667  0.70266719     0.33900
H598        H  0.14878925  0.84774170  0.69809161     0.30500
H599        H  0.20977283  0.86247256  0.82315319     0.38400
H600        H  0.21024665  0.84174489  0.81862647     0.33900
C601        C  0.21577544  0.03742507  0.24019544    -0.19900
C602        C  0.22265556  0.02843221  0.20975011     0.36400
C603        C  0.22210006  0.01091846  0.21031197    -0.25800
C604        C  0.21462049  0.00233646  0.24021397     0.02800
C605        C  0.20639866  0.01129604  0.26843317     0.27600
C606        C  0.20707518  0.02871738  0.26820257    -0.25000
N607        N  0.23088761  0.03696253  0.17950285    -0.82300
H608        H  0.22825113  0.00391045  0.18846369     0.13400
C609        C  0.21739288  0.98420287  0.24486795     0.02800
N610        N  0.19799581  0.00257103  0.29814384    -0.80900
H611        H  0.20140245  0.03546785  0.29113096     0.18200
C612        C  0.22724697  0.97869613  0.27591604    -0.25800
C613        C  0.23033489  0.96172310  0.28236898     0.36300
C614        C  0.22380372  0.94988768  0.25630423    -0.19800
C615        C  0.21381709  0.95548551  0.22519774    -0.25000
C616        C  0.21042648  0.97254624  0.21944975     0.27600
H617        H  0.23243790  0.98776950  0.29552053     0.13400
N618        N  0.23992780  0.95656741  0.31557631    -0.82300
H619        H  0.20858935  0.94654229  0.20536815     0.18300
N620        N  0.19985959  0.97808041  0.18822349    -0.80900
H621        H  0.23197351  0.95025967  0.33371410     0.33900
H622        H  0.24427380  0.96686429  0.33080901     0.38400
H623        H  0.19569914  0.96794967  0.17216700     0.33800
H624        H  0.18937752  0.98354534  0.19984168     0.30500
H625        H  0.19271513  0.01095279  0.31702846     0.33900
H626        H  0.18822220  0.99603188  0.28525771     0.30500
H627        H  0.22192486  0.04387501  0.16419173     0.38400
H628        H  0.23574931  0.02846414  0.16027528     0.33900
C629        C  0.19280010  0.12685488  0.23177250    -0.19900
C630        C  0.17564029  0.12411733  0.23584234     0.36400
C631        C  0.16445706  0.13741717  0.23019793    -0.25800
C632        C  0.16992808  0.15342628  0.22068238     0.02800
C633        C  0.18694322  0.15599238  0.21488072     0.27600
C634        C  0.19817364  0.14274126  0.22069973    -0.25000
N635        N  0.16960552  0.10807824  0.24719692    -0.82300
H636        H  0.15144600  0.13546558  0.23525921     0.13400
C637        C  0.15795335  0.16760258  0.22115704     0.02800
N638        N  0.19276840  0.17212376  0.20364605    -0.80900
H639        H  0.21125155  0.14491813  0.21704744     0.18200
C640        C  0.16144104  0.18115426  0.24500141    -0.25800
C641        C  0.14976277  0.19385578  0.25046779     0.36300
C642        C  0.13409134  0.19305448  0.23152907    -0.19800
C643        C  0.13081879  0.17975429  0.20663366    -0.25000
C644        C  0.14259309  0.16709422  0.20108556     0.27600
H645        H  0.17308848  0.18142490  0.26098870     0.13400
N646        N  0.15360729  0.20714008  0.27644323    -0.82300
H647        H  0.11891935  0.17909596  0.19179215     0.18300
N648        N  0.13894413  0.15362098  0.17552130    -0.80900
H649        H  0.16583986  0.20619702  0.28670883     0.33900
H650        H  0.14614294  0.20567147  0.30015283     0.38400
H651        H  0.12710363  0.15502121  0.16315497     0.33800
H652        H  0.14727963  0.15429686  0.15325499     0.30500
H653        H  0.20561027  0.17198973  0.20082707     0.33900
H654        H  0.18763613  0.17480640  0.17658647     0.30500
H655        H  0.17364309  0.10595275  0.27542111     0.38400
H656        H  0.15667631  0.10805060  0.24739576     0.33900
C657        C  0.22650236  0.04699798  0.73845781    -0.19900
C658        C  0.22269617  0.04000118  0.77444221     0.36400
C659        C  0.22072325  0.02262600  0.77801154    -0.25800
C660        C  0.22259193  0.01210731  0.74660242     0.02800
C661        C  0.22642575  0.01905209  0.71085960     0.27600
C662        C  0.22821072  0.03633578  0.70713916    -0.25000
N663        N  0.22094984  0.05042697  0.80725647    -0.82300
H664        H  0.21775333  0.01722934  0.80541850     0.13400
C665        C  0.22052906  0.99380474  0.75091830     0.02800
N666        N  0.22869696  0.00845622  0.67849057    -0.80900
H667        H  0.23116583  0.04147241  0.67947789     0.18200
C668        C  0.20837928  0.98578900  0.72857219    -0.25800
C669        C  0.20730934  0.96835086  0.72769411     0.36300
C670        C  0.21859958  0.95863338  0.75002217    -0.19800
C671        C  0.23009341  0.96674311  0.77426286    -0.25000
C672        C  0.23131144  0.98421110  0.77459073     0.27600
H673        H  0.19999458  0.99322520  0.71077587     0.13400
N674        N  0.19508295  0.96053721  0.70339090    -0.82300
H675        H  0.23881760  0.95943077  0.79143031     0.18300
N676        N  0.24390047  0.99219129  0.79757974    -0.80900
H677        H  0.18806015  0.96945183  0.68822115     0.33900
H678        H  0.18691949  0.95424591  0.72102067     0.38400
H679        H  0.25081327  0.98338031  0.81334245     0.33800
H680        H  0.25208287  0.99795823  0.77907724     0.30500
H681        H  0.23134384  0.01548707  0.65419248     0.33900
H682        H  0.23907844  0.00098297  0.68440595     0.30500
H683        H  0.23260265  0.05533106  0.81401763     0.38400
H684        H  0.21755069  0.04337280  0.83097833     0.33900
C685        C  0.23601880  0.10134797  0.59341101    -0.19900
C686        C  0.24977716  0.10631607  0.57176299     0.36400
C687        C  0.24884364  0.10540426  0.53161801    -0.25800
C688        C  0.23469201  0.09932999  0.51261288     0.02800
C689        C  0.22098030  0.09443686  0.53389035     0.27600
C690        C  0.22175619  0.09553371  0.57394953    -0.25000
N691        N  0.26470725  0.11211911  0.59033405    -0.82300
H692        H  0.25936592  0.10906979  0.51501086     0.13400
C693        C  0.23450831  0.09771638  0.47040811     0.02800
N694        N  0.20632700  0.08834387  0.51463434    -0.80900
H695        H  0.21115939  0.09167430  0.59004058     0.18200
C696        C  0.23390451  0.08182641  0.45435619    -0.25800
C697        C  0.23313030  0.07967132  0.41455548     0.36300
C698        C  0.23325293  0.09381101  0.39013633    -0.19800
C699        C  0.23423929  0.10972248  0.40643623    -0.25000
C700        C  0.23466572  0.11181522  0.44631728     0.27600
H701        H  0.23385019  0.07104411  0.47310686     0.13400
N702        N  0.23248834  0.06315906  0.39911094    -0.82300
H703        H  0.23428332  0.12060424  0.38801272     0.18300
N704        N  0.23499391  0.12818656  0.46250544    -0.80900
H705        H  0.23407683  0.05425946  0.42082539     0.33900
H706        H  0.22053539  0.06138723  0.38782740     0.38400
H707        H  0.23508126  0.13724698  0.44095182     0.33800
H708        H  0.22398552  0.12984904  0.47706707     0.30500
H709        H  0.19736216  0.08515678  0.53434322     0.33900
H710        H  0.20136098  0.09808990  0.49798943     0.30500
H711        H  0.27021481  0.10194518  0.60450686     0.38400
H712        H  0.27319048  0.11609414  0.57020274     0.33900
C713        C  0.09920674  0.23176882  0.58976937    -0.19900
C714        C  0.08508605  0.23180222  0.56490370     0.36400
C715        C  0.08712672  0.23093243  0.52523841    -0.25800
C716        C  0.10285395  0.22971111  0.50956029     0.02800
C717        C  0.11697069  0.22998255  0.53401695     0.27600
C718        C  0.11500911  0.23108909  0.57378537    -0.25000
N719        N  0.06869111  0.23268475  0.57971703    -0.82300
H720        H  0.07631587  0.23097698  0.50628145     0.13400
C721        C  0.10411338  0.22796215  0.46744711     0.02800
N722        N  0.13320874  0.22887274  0.51843563    -0.80900
H723        H  0.12591388  0.23111494  0.59241369     0.18200
C724        C  0.11267026  0.23991271  0.44637648    -0.25800
C725        C  0.11280102  0.23940818  0.40618073     0.36300
C726        C  0.10386887  0.22683182  0.38661536    -0.19800
C727        C  0.09596162  0.21446835  0.40800395    -0.25000
C728        C  0.09606872  0.21484986  0.44808352     0.27600
H729        H  0.11894626  0.24990198  0.46134486     0.13400
N730        N  0.12174373  0.25176691  0.38534814    -0.82300
H731        H  0.08927952  0.20463467  0.39342396     0.18300
N732        N  0.08783370  0.20208843  0.46928095    -0.80900
H733        H  0.12728925  0.26029626  0.40400520     0.33900
H734        H  0.13138446  0.24568040  0.37173720     0.38400
H735        H  0.08239695  0.19340385  0.45082647     0.33800
H736        H  0.09684837  0.19568765  0.48558702     0.30500
H737        H  0.14229007  0.22930497  0.54020233     0.33900
H738        H  0.13426438  0.21722437  0.50564470     0.30500
H739        H  0.06637843  0.22131637  0.59318022     0.38400
H740        H  0.05984757  0.23379520  0.55751279     0.33900
C741        C  0.13688211  0.19844395  0.74915990    -0.19900
C742        C  0.15219184  0.20432969  0.76424408     0.36400
C743        C  0.16586904  0.19337816  0.76766706    -0.25800
C744        C  0.16459636  0.17669762  0.75642142     0.02800
C745        C  0.14928388  0.17078519  0.74200258     0.27600
C746        C  0.13560535  0.18160893  0.73905358    -0.25000
N747        N  0.15388592  0.22137132  0.77574322    -0.82300
H748        H  0.17762141  0.19787816  0.77888086     0.13400
C749        C  0.17938114  0.16550971  0.75820759     0.02800
N750        N  0.14782559  0.15388779  0.72921759    -0.80900
H751        H  0.12402046  0.17696910  0.72723745     0.18200
C752        C  0.17882697  0.15076377  0.77982703    -0.25800
C753        C  0.19120875  0.13853978  0.77717697     0.36300
C754        C  0.20452538  0.14099615  0.75251235    -0.19800
C755        C  0.20578899  0.15635964  0.73333451    -0.25000
C756        C  0.19327412  0.16857113  0.73561121     0.27600
H757        H  0.16836846  0.14845324  0.79782911     0.13400
N758        N  0.19007136  0.12355391  0.79928366    -0.82300
H759        H  0.21605098  0.15846268  0.71464415     0.18300
N760        N  0.19424873  0.18370588  0.71368748    -0.80900
H761        H  0.18978281  0.12679813  0.82812195     0.33900
H762        H  0.17887087  0.11780116  0.79202422     0.38400
H763        H  0.20525098  0.18407154  0.69867791     0.33800
H764        H  0.18459737  0.18363577  0.69323322     0.30500
H765        H  0.13576024  0.15144860  0.71945832     0.33900
H766        H  0.15544127  0.15250944  0.70575181     0.30500
H767        H  0.14626079  0.22317537  0.79902248     0.38400
H768        H  0.16597631  0.22372839  0.78549077     0.33900
C769        C  0.93526084  0.63230691  0.16612022    -0.19900
C770        C  0.91791563  0.63537655  0.16142922     0.36400
C771        C  0.91106983  0.65074778  0.17177747    -0.25800
C772        C  0.92105075  0.66359204  0.18572641     0.02800
C773        C  0.93836670  0.66129682  0.18778226     0.27600
C774        C  0.94516890  0.64601145  0.17725031    -0.25000
N775        N  0.90710614  0.62288959  0.14604454    -0.82300
H776        H  0.89781322  0.65264200  0.16894935     0.13400
C777        C  0.91327851  0.67937172  0.19769147     0.02800
N778        N  0.94953532  0.67418037  0.20021472    -0.80900
H779        H  0.95846377  0.64539630  0.17699655     0.18200
C780        C  0.90979018  0.68152287  0.23627238    -0.25800
C781        C  0.90474380  0.69706928  0.25007724     0.36300
C782        C  0.90336335  0.71083417  0.22466319    -0.19800
C783        C  0.90584922  0.70830510  0.18551960    -0.25000
C784        C  0.91088926  0.69270953  0.17182313     0.27600
H785        H  0.91153786  0.67113286  0.25587792     0.13400
N786        N  0.90135532  0.69895962  0.28991275    -0.82300
H787        H  0.90465362  0.71870607  0.16579065     0.18300
N788        N  0.91401526  0.69044970  0.13197737    -0.80900
H789        H  0.90321669  0.68772510  0.30466295     0.33900
H790        H  0.88879732  0.70188754  0.29193298     0.38400
H791        H  0.91153511  0.70143130  0.11666839     0.33800
H792        H  0.92664613  0.68801358  0.12940860     0.30500
H793        H  0.95686741  0.67731864  0.17711839     0.33900
H794        H  0.94333883  0.68502002  0.20779333     0.30500
H795        H  0.89771384  0.62063134  0.16531516     0.38400
H796        H  0.90154201  0.62764687  0.12095399     0.33900
C797        C  0.95152639  0.77458988  0.25110073    -0.19900
C798        C  0.95922703  0.77463033  0.21525269     0.36400
C799        C  0.97657458  0.77600556  0.21377656    -0.25800
C800        C  0.98641560  0.77733973  0.24722793     0.02800
C801        C  0.97872622  0.77764593  0.28290836     0.27600
C802        C  0.96141688  0.77649189  0.28440537    -0.25000
N803        N  0.94950305  0.77315162  0.18051703    -0.82300
H804        H  0.98250074  0.77592178  0.18638549     0.13400
C805        C  0.00479089  0.77774273  0.24482649     0.02800
N806        N  0.98857483  0.77858841  0.31760820    -0.80900
H807        H  0.95569362  0.77640902  0.31202748     0.18200
C808        C  0.01364646  0.79106866  0.26089772    -0.25800
C809        C  0.03107448  0.79104629  0.26260678     0.36300
C810        C  0.03985386  0.77741816  0.24765258    -0.19800
C811        C  0.03094366  0.76461046  0.22948155    -0.25000
C812        C  0.01355105  0.76448458  0.22846374     0.27600
H813        H  0.00689080  0.80135898  0.27293873     0.13400
N814        N  0.03982569  0.80464380  0.28009136    -0.82300
H815        H  0.03754609  0.75407482  0.21809948     0.18300
N816        N  0.00476556  0.75057168  0.21241720    -0.80900
H817        H  0.03153520  0.81351836  0.29011471     0.33900
H818        H  0.04658981  0.81049940  0.25884088     0.38400
H819        H  0.01301266  0.74186424  0.20152914     0.33800
H820        H  0.99865423  0.74462518  0.23460846     0.30500
H821        H  0.98104574  0.77873810  0.34142557     0.33900
H822        H  0.99571113  0.76772871  0.31979377     0.30500
H823        H  0.94213865  0.78383571  0.17779134     0.38400
H824        H  0.95710583  0.77301865  0.15681949     0.33900
C825        C  0.85944400  0.79674593  0.23196298    -0.19900
C826        C  0.84327800  0.79480899  0.24597807     0.36400
C827        C  0.83153511  0.80761757  0.24028320    -0.25800
C828        C  0.83544339  0.82237578  0.22095380     0.02800
C829        C  0.85125029  0.82398063  0.20518068     0.27600
C830        C  0.86309669  0.81123683  0.21107750    -0.25000
N831        N  0.83896129  0.78020849  0.26740147    -0.82300
H832        H  0.81947909  0.80642598  0.25279145     0.13400
C833        C  0.82344021  0.83655487  0.22117066     0.02800
N834        N  0.85526728  0.83865522  0.18370411    -0.80900
H835        H  0.87534957  0.81276490  0.19979893     0.18200
C836        C  0.82855751  0.85180199  0.23663333    -0.25800
C837        C  0.81722899  0.86478736  0.24271539     0.36300
C838        C  0.80028324  0.86252765  0.23299549    -0.19800
C839        C  0.79528535  0.84748541  0.21614544    -0.25000
C840        C  0.80668331  0.83455568  0.20985594     0.27600
H841        H  0.84135794  0.85329324  0.24583374     0.13400
N842        N  0.82283819  0.87993498  0.26024457    -0.82300
H843        H  0.78237467  0.84571822  0.20822649     0.18300
N844        N  0.80128633  0.81931640  0.19244988    -0.80900
H845        H  0.83568737  0.87975724  0.26444316     0.33900
H846        H  0.81780792  0.88045348  0.28741528     0.38400
H847        H  0.78859756  0.81977903  0.18594787     0.33800
H848        H  0.80727334  0.81824434  0.16647746     0.30500
H849        H  0.86738625  0.83795782  0.17413165     0.33900
H850        H  0.84750627  0.83898652  0.15935248     0.30500
H851        H  0.84562628  0.78051944  0.29336497     0.38400
H852        H  0.82645064  0.78047326  0.27423565     0.33900
C853        C  0.76217572  0.89312650  0.59609317    -0.19900
C854        C  0.77439351  0.90130619  0.57477581     0.36400
C855        C  0.77321482  0.90120968  0.53471936    -0.25800
C856        C  0.76031354  0.89290663  0.51553340     0.02800
C857        C  0.74837811  0.88436758  0.53658494     0.27600
C858        C  0.74945706  0.88451001  0.57669380    -0.25000
N859        N  0.78801894  0.90955091  0.59371140    -0.82300
H860        H  0.78246674  0.90755545  0.51823864     0.13400
C861        C  0.75950797  0.89342386  0.47327359     0.02800
N862        N  0.73508810  0.87583509  0.51711657    -0.80900
H863        H  0.74009146  0.87818317  0.59284297     0.18200
C864        C  0.76201103  0.87878986  0.45270344    -0.25800
C865        C  0.76248854  0.87905539  0.41256553     0.36300
C866        C  0.76019642  0.89432572  0.39266766    -0.19800
C867        C  0.75735930  0.90888706  0.41356767    -0.25000
C868        C  0.75692196  0.90857258  0.45359551     0.27600
H869        H  0.76404790  0.86720102  0.46814822     0.13400
N870        N  0.76565653  0.86395942  0.39223001    -0.82300
H871        H  0.75544689  0.92061168  0.39862806     0.18300
N872        N  0.75388947  0.92356958  0.47445089    -0.80900
H873        H  0.76662068  0.85384195  0.41110538     0.33900
H874        H  0.77721411  0.86515088  0.37981121     0.38400
H875        H  0.75230721  0.93368692  0.45577098     0.33800
H876        H  0.74269597  0.92209720  0.48836256     0.30500
H877        H  0.72737414  0.87011710  0.53674665     0.33900
H878        H  0.72788852  0.88477032  0.50247712     0.30500
H879        H  0.79517237  0.90042623  0.60785461     0.38400
H880        H  0.79569116  0.91515766  0.57383854     0.33900
C881        C  0.92937872  0.62882609  0.84832577    -0.19900
C882        C  0.91531281  0.63077874  0.82295234     0.36400
C883        C  0.91038033  0.64669040  0.81027268    -0.25800
C884        C  0.91830915  0.66102563  0.82338311     0.02800
C885        C  0.93081551  0.65953584  0.85188294     0.27600
C886        C  0.93582540  0.64361101  0.86474640    -0.25000
N887        N  0.90518635  0.61706139  0.81137782    -0.82300
H888        H  0.90009088  0.64786911  0.78994211     0.13400
C889        C  0.91363714  0.67738076  0.80594680     0.02800
N890        N  0.93877334  0.67415682  0.86676506    -0.80900
H891        H  0.94571861  0.64266336  0.88612633     0.18200
C892        C  0.90718127  0.69006504  0.82854957    -0.25800
C893        C  0.90280677  0.70569629  0.81266419     0.36300
C894        C  0.90506684  0.70872900  0.77322486    -0.19800
C895        C  0.91120565  0.69580498  0.75066448    -0.25000
C896        C  0.91560799  0.68027525  0.76658627     0.27600
H897        H  0.90551845  0.68771807  0.85870704     0.13400
N898        N  0.89627630  0.71845977  0.83659330    -0.82300
H899        H  0.91305465  0.69793688  0.72050558     0.18300
N900        N  0.92242742  0.66750481  0.74306266    -0.80900
H901        H  0.89591114  0.71436040  0.86495968     0.33900
H902        H  0.88400441  0.72059864  0.82768494     0.38400
H903        H  0.92303606  0.67155826  0.71470310     0.33800
H904        H  0.93461001  0.66533706  0.75263745     0.30500
H905        H  0.94772321  0.67093738  0.88763223     0.33900
H906        H  0.94505674  0.67978067  0.84440271     0.30500
H907        H  0.90469998  0.61675353  0.78151171     0.38400
H908        H  0.89318191  0.61919008  0.82065454     0.33900
C909        C  0.95210435  0.77306650  0.74997965    -0.19900
C910        C  0.96220112  0.76366321  0.77590905     0.36400
C911        C  0.97946050  0.76590646  0.77635964    -0.25800
C912        C  0.98680691  0.77771086  0.75254562     0.02800
C913        C  0.97661992  0.78816305  0.72943810     0.27600
C914        C  0.95943757  0.78561728  0.72806544    -0.25000
N915        N  0.95505370  0.75147432  0.80069870    -0.82300
H916        H  0.98727800  0.75796865  0.79435794     0.13400
C917        C  0.00512958  0.77791923  0.74929363     0.02800
N918        N  0.98384555  0.80107524  0.70676776    -0.80900
H919        H  0.95180726  0.79317949  0.70882535     0.18200
C920        C  0.01187553  0.77577737  0.71317859    -0.25800
C921        C  0.02904091  0.77498993  0.70842558     0.36300
C922        C  0.03983869  0.77581831  0.74087335    -0.19800
C923        C  0.03306487  0.77831147  0.77699697    -0.25000
C924        C  0.01583684  0.77947573  0.78149558     0.27600
H925        H  0.00364119  0.77449893  0.68847572     0.13400
N926        N  0.03544201  0.77320926  0.67073317    -0.82300
H927        H  0.04121177  0.77911059  0.80195246     0.18300
N928        N  0.00916739  0.78215960  0.81859540    -0.80900
H929        H  0.02582505  0.77227930  0.65033324     0.33900
H930        H  0.04178928  0.78414100  0.66431726     0.38400
H931        H  0.01867309  0.78298176  0.83929861     0.33800
H932        H  0.00313921  0.79369171  0.81788786     0.30500
H933        H  0.97469747  0.80761136  0.69117519     0.33900
H934        H  0.98937682  0.80957021  0.72554828     0.30500
H935        H  0.94775483  0.75786035  0.82003087     0.38400
H936        H  0.96424948  0.74533357  0.81700675     0.33900
C937        C  0.89781663  0.75307590  0.59530231    -0.19900
C938        C  0.91212452  0.75299103  0.57286383     0.36400
C939        C  0.91042244  0.75392459  0.53286509    -0.25800
C940        C  0.89478342  0.75463480  0.51471431     0.02800
C941        C  0.88048913  0.75397385  0.53681903     0.27600
C942        C  0.88214343  0.75310393  0.57691086    -0.25000
N943        N  0.92832640  0.75194325  0.59066104    -0.82300
H944        H  0.92135869  0.75414397  0.51562459     0.13400
C945        C  0.89371793  0.75637819  0.47249951     0.02800
N946        N  0.86438464  0.75460878  0.51848964    -0.80900
H947        H  0.87113248  0.75307660  0.59388063     0.18200
C948        C  0.88758590  0.74323001  0.45033919    -0.25800
C949        C  0.88769756  0.74395220  0.41013763     0.36300
C950        C  0.89383643  0.75834693  0.39173277    -0.19800
C951        C  0.89952051  0.77166230  0.41427602    -0.25000
C952        C  0.89950656  0.77082827  0.45435167     0.27600
H953        H  0.88318946  0.73214258  0.46455018     0.13400
N954        N  0.88194022  0.72997598  0.38824240    -0.82300
H955        H  0.90414059  0.78277855  0.40061565     0.18300
N956        N  0.90544416  0.78456299  0.47681324    -0.80900
H957        H  0.87729049  0.72074292  0.40615014     0.33900
H958        H  0.89219400  0.72474462  0.37518418     0.38400
H959        H  0.90938218  0.79423685  0.45917956     0.33800
H960        H  0.89546343  0.78919435  0.49194385     0.30500
H961        H  0.85513928  0.75396430  0.53876235     0.33900
H962        H  0.86312814  0.76620861  0.50500592     0.30500
H963        H  0.92931118  0.74034131  0.60424979     0.38400
H964        H  0.93748077  0.75223364  0.57012918     0.33900
C965        C  0.86246268  0.79443347  0.74766430    -0.19900
C966        C  0.84702715  0.79014667  0.76301559     0.36400
C967        C  0.83442779  0.80228452  0.76483288    -0.25800
C968        C  0.83690946  0.81865941  0.75196045     0.02800
C969        C  0.85254701  0.82308989  0.73808153     0.27600
C970        C  0.86512497  0.81099899  0.73635505    -0.25000
N971        N  0.84417193  0.77354694  0.77676315    -0.82300
H972        H  0.82256650  0.79896352  0.77632015     0.13400
C973        C  0.82300041  0.83097430  0.75240073     0.02800
N974        N  0.85547422  0.83975434  0.72477733    -0.80900
H975        H  0.87692148  0.81444310  0.72471786     0.18200
C976        C  0.82527708  0.84626670  0.77084342    -0.25800
C977        C  0.81292623  0.85868770  0.76958243     0.36300
C978        C  0.79771916  0.85568914  0.74988365    -0.19800
C979        C  0.79522009  0.84007851  0.73281894    -0.25000
C980        C  0.80773662  0.82782697  0.73335930     0.27600
H981        H  0.83689250  0.84860666  0.78592873     0.13400
N982        N  0.81596216  0.87440378  0.78768521    -0.82300
H983        H  0.78370283  0.83765801  0.71741179     0.18300
N984        N  0.80520473  0.81243058  0.71346867    -0.80900
H985        H  0.82791623  0.87475834  0.79978431     0.33900
H986        H  0.80782802  0.87539084  0.81026767     0.38400
H987        H  0.79333302  0.81203085  0.70095998     0.33800
H988        H  0.81351454  0.81207408  0.69110136     0.30500
H989        H  0.86763205  0.84102000  0.71573162     0.33900
H990        H  0.84777082  0.84185351  0.70078568     0.30500
H991        H  0.85215745  0.77150452  0.80031940     0.38400
H992        H  0.83214583  0.77241758  0.78671386     0.33900
C993        C  0.77854174  0.03464155  0.76516193    -0.19900
C994        C  0.76799990  0.02386387  0.78537167     0.36400
C995        C  0.77038278  0.00654499  0.78327471    -0.25800
C996        C  0.78285318  0.99966568  0.76106182     0.02800
C997        C  0.79373665  0.01037721  0.74204240     0.27600
C998        C  0.79146681  0.02769603  0.74427479    -0.25000
N999        N  0.75446930  0.03039178  0.80658468    -0.82300
H1000       H  0.76186854  0.99831427  0.79741619     0.13400
C1001       C  0.78307613  0.98135066  0.75474321     0.02800
N1002       N  0.80687420  0.00359779  0.71998295    -0.80900
H1003       H  0.79966459  0.03581180  0.72887276     0.39000
C1004       C  0.78145663  0.97539644  0.71731051    -0.25800
C1005       C  0.77908017  0.95840845  0.70992553     0.36300
C1006       C  0.77814537  0.94701325  0.74087091    -0.19800
C1007       C  0.78064823  0.95290233  0.77828767    -0.25000
C1008       C  0.78328682  0.96991077  0.78548385     0.27600
H1009       H  0.78122318  0.98418035  0.69368733     0.13400
N1010       N  0.77698319  0.95290602  0.67112774    -0.82300
H1011       H  0.78030096  0.94424542  0.80209937     0.18300
N1012       N  0.78597011  0.97566958  0.82388572    -0.80900
H1013       H  0.77885941  0.96270747  0.65195444     0.33900
H1014       H  0.76464382  0.94933982  0.66721128     0.38400
H1015       H  0.78575183  0.96572113  0.84324823     0.33800
H1016       H  0.79788897  0.98065176  0.82569787     0.30500
H1017       H  0.81370754  0.01311529  0.70749967     0.33900
H1018       H  0.81495045  0.99725035  0.73883624     0.30500
H1019       H  0.74586741  0.03545594  0.78689960     0.38400
H1020       H  0.74835560  0.02083630  0.82082178     0.33900
C1021       C  0.95763168  0.21335440  0.75575744    -0.19900
C1022       C  0.96587643  0.20877054  0.79048526     0.36400
C1023       C  0.98338591  0.20812757  0.79232795    -0.25800
C1024       C  0.99279228  0.21181737  0.76015477     0.02800
C1025       C  0.98453641  0.21638765  0.72566210     0.27600
C1026       C  0.96718038  0.21694458  0.72377290    -0.25000
N1027       N  0.95653685  0.20469952  0.82359857    -0.82300
H1028       H  0.98972858  0.20458482  0.81879867     0.13400
C1029       C  0.01127851  0.21108658  0.76203756     0.02800
N1030       N  0.99387886  0.22074603  0.69268567    -0.80900
H1031       H  0.96108769  0.22064371  0.69711722     0.18200
C1032       C  0.01953403  0.20048273  0.73710089    -0.25800
C1033       C  0.03672667  0.20162777  0.73210543     0.36300
C1034       C  0.04591923  0.21389729  0.75205869    -0.19800
C1035       C  0.03786209  0.22341470  0.77968228    -0.25000
C1036       C  0.02066559  0.22212713  0.78490559     0.27600
H1037       H  0.01237022  0.19168572  0.72029886     0.13400
N1038       N  0.04473283  0.19067701  0.70604059    -0.82300
H1039       H  0.04481334  0.23258855  0.79582676     0.18300
N1040       N  0.01262878  0.23250163  0.81212017    -0.80900
H1041       H  0.03617367  0.18259372  0.69328061     0.33900
H1042       H  0.05303516  0.18325630  0.72207289     0.38400
H1043       H  0.02129291  0.23982944  0.82686806     0.33800
H1044       H  0.00478781  0.24068323  0.79692131     0.30500
H1045       H  0.98600234  0.22371481  0.66946373     0.33900
H1046       H  0.00052737  0.23152868  0.69919189     0.30500
H1047       H  0.94988088  0.19387934  0.81748511     0.38400
H1048       H  0.96445842  0.20183611  0.84681678     0.33900
C1049       C  0.86439797  0.18991848  0.77725612    -0.19900
C1050       C  0.84752562  0.19285645  0.76717205     0.36400
C1051       C  0.83586337  0.18006579  0.77196695    -0.25800
C1052       C  0.84047987  0.16456364  0.78772368     0.02800
C1053       C  0.85699373  0.16214561  0.80075195     0.27600
C1054       C  0.86875630  0.17472774  0.79506648    -0.25000
N1055       N  0.84230438  0.20857036  0.75102354    -0.82300
H1056       H  0.82318639  0.18201608  0.76211403     0.13400
C1057       C  0.82832971  0.15056695  0.78732314     0.02800
N1058       N  0.86181702  0.14676163  0.81911211    -0.80900
H1059       H  0.88152206  0.17243929  0.80375666     0.18200
C1060       C  0.83261431  0.13561293  0.76959108    -0.25800
C1061       C  0.82139004  0.12234948  0.76624323     0.36300
C1062       C  0.80513363  0.12420908  0.77979314    -0.19800
C1063       C  0.80093428  0.13910236  0.79817761    -0.25000
C1064       C  0.81240584  0.15217196  0.80255250     0.27600
H1065       H  0.84476923  0.13437865  0.75759019     0.13400
N1066       N  0.82635801  0.10726659  0.74787225    -0.82300
H1067       H  0.78859378  0.14061670  0.80900151     0.18300
N1068       N  0.80793550  0.16707268  0.82229097    -0.80900
H1069       H  0.83832466  0.10834749  0.73755593     0.33900
H1070       H  0.82694673  0.09791970  0.76878766     0.38400
H1071       H  0.79579726  0.16631907  0.83172056     0.33800
H1072       H  0.81559393  0.16787404  0.84672207     0.30500
H1073       H  0.87439066  0.14688175  0.82684454     0.33900
H1074       H  0.85533270  0.14583717  0.84447466     0.30500
H1075       H  0.84394191  0.21754014  0.77223804     0.38400
H1076       H  0.82965011  0.20845986  0.74407522     0.33900
C1077       C  0.77379755  0.03875031  0.27704494    -0.19900
C1078       C  0.77391235  0.02679375  0.30690650     0.36400
C1079       C  0.77608891  0.00990071  0.29833673    -0.25800
C1080       C  0.77853104  0.00461075  0.26081621     0.02800
C1081       C  0.77912616  0.01655053  0.23118524     0.27600
C1082       C  0.77668090  0.03347189  0.23956294    -0.25000
N1083       N  0.77169024  0.03175140  0.34580654    -0.82300
H1084       H  0.77552880  0.00071425  0.32105512     0.13400
C1085       C  0.77919975  0.98642820  0.25319070     0.02800
N1086       N  0.78209383  0.01142285  0.19272925    -0.80900
H1087       H  0.77675019  0.04253920  0.21653562     0.18200
C1088       C  0.76746221  0.97941588  0.22796732    -0.25800
C1089       C  0.76576009  0.96206621  0.22487046     0.36300
C1090       C  0.77577762  0.95146244  0.24832662    -0.19800
C1091       C  0.78834208  0.95854187  0.27141892    -0.25000
C1092       C  0.79022566  0.97588077  0.27386332     0.27600
H1093       H  0.75907011  0.98752292  0.21186866     0.13400
N1094       N  0.75349474  0.95528363  0.19901773    -0.82300
H1095       H  0.79634860  0.95056124  0.28884749     0.18300
N1096       N  0.80298546  0.98286310  0.29809749    -0.80900
H1097       H  0.74691916  0.96478391  0.18473963     0.33900
H1098       H  0.75975834  0.94872806  0.17810543     0.38400
H1099       H  0.80998815  0.97345184  0.31158021     0.33800
H1100       H  0.81102453  0.98939725  0.28059750     0.30500
H1101       H  0.78207934  0.02170057  0.17425542     0.33900
H1102       H  0.79398533  0.00627823  0.19239164     0.30500
H1103       H  0.78195190  0.03887215  0.35402717     0.38400
H1104       H  0.77170297  0.02139202  0.36402552     0.33900
C1105       C  0.76147326  0.09540215  0.42114068    -0.19900
C1106       C  0.75190544  0.10721557  0.44082437     0.36400
C1107       C  0.75194283  0.10687489  0.48103012    -0.25800
C1108       C  0.76137987  0.09510980  0.50192141     0.02800
C1109       C  0.77117004  0.08357400  0.48241383     0.27600
C1110       C  0.77110545  0.08383657  0.44235465    -0.25000
N1111       N  0.74214706  0.11944656  0.42015640    -0.82300
H1112       H  0.74443311  0.11570363  0.49621689     0.13400
C1113       C  0.76061532  0.09463443  0.54421761     0.02800
N1114       N  0.78109859  0.07158519  0.50344377    -0.80900
H1115       H  0.77849922  0.07475946  0.42764159     0.18200
C1116       C  0.75485090  0.08021206  0.56210543    -0.25800
C1117       C  0.75446462  0.07888852  0.60208860     0.36300
C1118       C  0.76018695  0.09228054  0.62481120    -0.19800
C1119       C  0.76546706  0.10692690  0.60671238    -0.25000
C1120       C  0.76579142  0.10821875  0.56666112     0.27600
H1121       H  0.75062053  0.06992126  0.54465316     0.13400
N1122       N  0.74828099  0.06399311  0.61951817    -0.82300
H1123       H  0.76982817  0.11725378  0.62385405     0.18300
N1124       N  0.77168634  0.12311355  0.54870438    -0.80900
H1125       H  0.74491356  0.05527187  0.59876244     0.33900
H1126       H  0.73744236  0.06717016  0.63344291     0.38400
H1127       H  0.77497523  0.13196691  0.56922130     0.33800
H1128       H  0.78249905  0.12005600  0.53455614     0.30500
H1129       H  0.78746221  0.06387354  0.48485580     0.33900
H1130       H  0.79006082  0.07811539  0.51919915     0.30500
H1131       H  0.75032675  0.12738028  0.40639269     0.38400
H1132       H  0.73553170  0.12684097  0.43894379     0.33900
C1133       C  0.95416661  0.21000891  0.25735269    -0.19900
C1134       C  0.96269139  0.22004388  0.23101200     0.36400
C1135       C  0.98000219  0.21867137  0.22898901    -0.25800
C1136       C  0.98898801  0.20725644  0.25194879     0.02800
C1137       C  0.98036540  0.19648063  0.27637367     0.27600
C1138       C  0.96310655  0.19807550  0.27906547    -0.25000
N1139       N  0.95395234  0.23226012  0.20798277    -0.82300
H1140       H  0.98660409  0.22704569  0.21047444     0.13400
C1141       C  0.00742725  0.20791818  0.25292477     0.02800
N1142       N  0.98923938  0.18421766  0.29899862    -0.80900
H1143       H  0.95664885  0.19021323  0.29897646     0.18200
C1144       C  0.01569677  0.21017603  0.28816115    -0.25800
C1145       C  0.03293006  0.21208503  0.29072172     0.36300
C1146       C  0.04220858  0.21237904  0.25693753    -0.19800
C1147       C  0.03397800  0.20966172  0.22167193    -0.25000
C1148       C  0.01670856  0.20732285  0.21935470     0.27600
H1149       H  0.00859280  0.21077158  0.31392470     0.13400
N1150       N  0.04093115  0.21395126  0.32759719    -0.82300
H1151       H  0.04097071  0.20970281  0.19571004     0.18300
N1152       N  0.00853836  0.20450708  0.18305815    -0.80900
H1153       H  0.03227124  0.21394800  0.34924377     0.33900
H1154       H  0.04843187  0.20347521  0.33241308     0.38400
H1155       H  0.01708527  0.20449065  0.16117092     0.33800
H1156       H  0.00341056  0.19260148  0.18388292     0.30500
H1157       H  0.98112212  0.17736946  0.31566924     0.33900
H1158       H  0.99458019  0.17583905  0.28020765     0.30500
H1159       H  0.94651653  0.22584753  0.18822073     0.38400
H1160       H  0.96218917  0.23926741  0.19198845     0.33900
C1161       C  0.89880209  0.22719547  0.41185666    -0.19900
C1162       C  0.88336739  0.22968228  0.42926856     0.36400
C1163       C  0.88242188  0.22864242  0.46929585    -0.25800
C1164       C  0.89658629  0.22570411  0.49231269     0.02800
C1165       C  0.91210297  0.22427161  0.47523680     0.27600
C1166       C  0.91303380  0.22483144  0.43526255    -0.25000
N1167       N  0.86867681  0.23305273  0.40647058    -0.82300
H1168       H  0.87056987  0.23004448  0.48267701     0.13400
C1169       C  0.89516137  0.22421333  0.53437845     0.02800
N1170       N  0.92685221  0.22223866  0.49867249    -0.80900
H1171       H  0.92496768  0.22326110  0.42237293     0.18200
C1172       C  0.89986376  0.20928666  0.55265470    -0.25800
C1173       C  0.90007420  0.20777603  0.59271749     0.36300
C1174       C  0.89572573  0.22166307  0.61507050    -0.19800
C1175       C  0.89018702  0.23630616  0.59642014    -0.25000
C1176       C  0.88989634  0.23773136  0.55637320     0.27600
H1177       H  0.90360485  0.19883219  0.53548216     0.13400
N1178       N  0.90492432  0.19228849  0.61056461    -0.82300
H1179       H  0.88662359  0.24695100  0.61314501     0.18300
N1180       N  0.88476733  0.25301999  0.53799827    -0.80900
H1181       H  0.90812405  0.18353913  0.59004932     0.33900
H1182       H  0.89457450  0.18755942  0.62417624     0.38400
H1183       H  0.88119509  0.26174154  0.55821303     0.33800
H1184       H  0.89503890  0.25797429  0.52448611     0.30500
H1185       H  0.93727247  0.22133551  0.48175463     0.33900
H1186       H  0.92831100  0.23302772  0.51489680     0.30500
H1187       H  0.87009770  0.24477891  0.39386351     0.38400
H1188       H  0.85834690  0.23393800  0.42367207     0.33900
C1189       C  0.79713731  0.12883891  0.26383639    -0.19900
C1190       C  0.79625135  0.14502419  0.27916680     0.36400
C1191       C  0.80955201  0.15604330  0.27450973    -0.25800
C1192       C  0.82382709  0.15120710  0.25537783     0.02800
C1193       C  0.82452482  0.13521973  0.23916610     0.27600
C1194       C  0.81121664  0.12420335  0.24366313    -0.25000
N1195       N  0.78225833  0.14997386  0.30097882    -0.82300
H1196       H  0.80909879  0.16825668  0.28731176     0.13400
C1197       C  0.83830718  0.16264770  0.25496990     0.02800
N1198       N  0.83884156  0.13018194  0.21862006    -0.80900
H1199       H  0.81195762  0.11180857  0.23188191     0.18200
C1200       C  0.85337218  0.15750886  0.27210477    -0.25800
C1201       C  0.86684067  0.16848248  0.27607567     0.36300
C1202       C  0.86527327  0.18507369  0.26228042    -0.19800
C1203       C  0.85031699  0.18995027  0.24390341    -0.25000
C1204       C  0.83689831  0.17892034  0.23996534     0.27600
H1205       H  0.85441005  0.14502076  0.28380370     0.13400
N1206       N  0.88186034  0.16287749  0.29503047    -0.82300
H1207       H  0.84898659  0.20251980  0.23288717     0.18300
N1208       N  0.82177587  0.18419984  0.22098802    -0.80900
H1209       H  0.88119446  0.15020482  0.30175652     0.33900
H1210       H  0.88286741  0.16909823  0.32107655     0.38400
H1211       H  0.82267809  0.19653040  0.21164807     0.33800
H1212       H  0.82017570  0.17693972  0.19652970     0.30500
H1213       H  0.83746725  0.11802906  0.20863576     0.33900
H1214       H  0.83956022  0.13786943  0.19452596     0.30500
H1215       H  0.78230867  0.14267812  0.32583860     0.38400
H1216       H  0.78346559  0.16230477  0.30983124     0.33900
C1217       C  0.63763953  0.07634424  0.86757445    -0.19900
C1218       C  0.65196851  0.07180535  0.89010337     0.36400
C1219       C  0.66765822  0.07766228  0.88025804    -0.25800
C1220       C  0.66954882  0.08857847  0.84939606     0.02800
C1221       C  0.65524917  0.09550197  0.83143020     0.27600
C1222       C  0.63962235  0.08961672  0.84124262    -0.25000
N1223       N  0.65086005  0.06043203  0.92164113    -0.82300
H1224       H  0.67852103  0.07274521  0.89529205     0.13400
C1225       C  0.68617801  0.09038107  0.83268060     0.02800
N1226       N  0.65610120  0.10819254  0.80235668    -0.80900
H1227       H  0.62911737  0.09532486  0.82664719     0.18200
C1228       C  0.68832793  0.08463984  0.79543831    -0.25800
C1229       C  0.70387545  0.08487321  0.77858258     0.36300
C1230       C  0.71771157  0.09104652  0.79944409    -0.19800
C1231       C  0.71557207  0.09682783  0.83682402    -0.25000
C1232       C  0.69988865  0.09667674  0.85355942     0.27600
H1233       H  0.67780918  0.07956439  0.77972481     0.13400
N1234       N  0.70570779  0.07835037  0.74079488    -0.82300
H1235       H  0.72614187  0.10155808  0.85291568     0.18300
N1236       N  0.69780965  0.10288687  0.89150329    -0.80900
H1237       H  0.69428714  0.07457841  0.72924312     0.33900
H1238       H  0.71306891  0.06764972  0.74322033     0.38400
H1239       H  0.70909328  0.10708208  0.90297539     0.33800
H1240       H  0.68996942  0.11325000  0.88941776     0.30500
H1241       H  0.64959385  0.11854817  0.81193373     0.33900
H1242       H  0.66822417  0.11223927  0.79892136     0.30500
H1243       H  0.65521535  0.06647307  0.94620995     0.38400
H1244       H  0.65867135  0.05028951  0.91695652     0.33900
C1245       C  0.61667705  0.06927530  0.91678242    -0.19900
C1246       C  0.61712297  0.08484290  0.93611882     0.36400
C1247       C  0.61392842  0.08572935  0.97547310    -0.25800
C1248       C  0.61102722  0.07134773  0.99722933     0.02800
C1249       C  0.61129701  0.05586929  0.97879485     0.27600
C1250       C  0.61414779  0.05496975  0.93974523    -0.25000
N1251       N  0.62078006  0.09987555  0.91585895    -0.82300
H1252       H  0.61388403  0.09777357  0.98910061     0.13400
C1253       C  0.60895314  0.07206033  0.03955011     0.02800
N1254       N  0.60927950  0.04072557  0.99993168    -0.80900
H1255       H  0.61479421  0.04257182  0.92844755     0.18200
C1256       C  0.59620166  0.06293826  0.05610186    -0.25800
C1257       C  0.59681854  0.05867446  0.09506695     0.36300
C1258       C  0.61026265  0.06401210  0.11883718    -0.19800
C1259       C  0.62048944  0.07654059  0.10350598    -0.25000
C1260       C  0.62064046  0.07987197  0.06397758     0.27600
H1261       H  0.58644933  0.05779073  0.03803026     0.13400
N1262       N  0.58450680  0.04773829  0.10941398    -0.82300
H1263       H  0.62918721  0.08312966  0.12167932     0.18300
N1264       N  0.63315589  0.09045701  0.04861571    -0.80900
H1265       H  0.57296201  0.05344928  0.10521588     0.33900
H1266       H  0.58457935  0.03679911  0.09344921     0.38400
H1267       H  0.64067231  0.09534615  0.07048936     0.33800
H1268       H  0.64082795  0.08306496  0.03211476     0.30500
H1269       H  0.59915673  0.03435488  0.98806334     0.33900
H1270       H  0.61984302  0.03338648  0.99667177     0.30500
H1271       H  0.61094926  0.10819570  0.91904518     0.38400
H1272       H  0.63133903  0.10512419  0.92862813     0.33900
C1273       C  0.63031333  0.06243177  0.17798370    -0.19900
C1274       C  0.63283218  0.06831355  0.21602830     0.36400
C1275       C  0.64878324  0.07280994  0.22916856    -0.25800
C1276       C  0.66260014  0.07122880  0.20610356     0.02800
C1277       C  0.66047616  0.06458186  0.16927654     0.27600
C1278       C  0.64468028  0.05973795  0.15647788    -0.25000
N1279       N  0.61973618  0.06870778  0.24271972    -0.82300
H1280       H  0.65045022  0.07712866  0.25824602     0.13400
C1281       C  0.67934363  0.07578442  0.22135151     0.02800
N1282       N  0.67437181  0.06287919  0.14474797    -0.80900
H1283       H  0.64347986  0.05420206  0.12851984     0.18200
C1284       C  0.69225087  0.06409735  0.21969754    -0.25800
C1285       C  0.70837182  0.06799594  0.23232200     0.36300
C1286       C  0.71164577  0.08386428  0.24772360    -0.19800
C1287       C  0.69866782  0.09537849  0.25072235    -0.25000
C1288       C  0.68258969  0.09161095  0.23706017     0.27600
H1289       H  0.68970222  0.05180175  0.20861804     0.13400
N1290       N  0.72134774  0.05575256  0.23033427    -0.82300
H1291       H  0.70117885  0.10747748  0.26292491     0.18300
N1292       N  0.66963030  0.10386671  0.23849226    -0.80900
H1293       H  0.71692115  0.04481583  0.21784683     0.33900
H1294       H  0.72506820  0.05265333  0.25831783     0.38400
H1295       H  0.67403758  0.11481924  0.25093001     0.33800
H1296       H  0.66606830  0.10687122  0.21035953     0.30500
H1297       H  0.67073397  0.05769573  0.11857372     0.33900
H1298       H  0.67869167  0.07482534  0.13875362     0.30500
H1299       H  0.61867967  0.08085645  0.25286636     0.38400
H1300       H  0.62301019  0.06097424  0.26585078     0.33900
C1301       C  0.62073103  0.95909285  0.84375245    -0.19900
C1302       C  0.63446542  0.96848149  0.83081086     0.36400
C1303       C  0.63361307  0.98598645  0.83067242    -0.25800
C1304       C  0.62156919  0.99464268  0.85097760     0.02800
C1305       C  0.60972479  0.98521735  0.87054956     0.27600
C1306       C  0.60895370  0.96798302  0.86511582    -0.25000
N1307       N  0.64962874  0.96069753  0.81997890    -0.82300
H1308       H  0.64288647  0.99282112  0.81547959     0.13400
C1309       C  0.62162619  0.01336008  0.85238872     0.02800
N1310       N  0.59850279  0.99308218  0.89610727    -0.80900
H1311       H  0.59877203  0.96137288  0.87751303     0.18200
C1312       C  0.60654425  0.02208770  0.85121341    -0.25800
C1313       C  0.60571452  0.03925951  0.85833076     0.36300
C1314       C  0.62061000  0.04880103  0.86162003    -0.19800
C1315       C  0.63557866  0.04012915  0.85567573    -0.25000
C1316       C  0.63637912  0.02267487  0.85512026     0.27600
H1317       H  0.59514093  0.01533728  0.84638454     0.13400
N1318       N  0.58970428  0.04690411  0.86200982    -0.82300
H1319       H  0.64706882  0.04658346  0.85294153     0.18300
N1320       N  0.65220592  0.01450240  0.85885823    -0.80900
H1321       H  0.58021018  0.03838922  0.85665573     0.33900
H1322       H  0.58850790  0.05059600  0.89031215     0.38400
H1323       H  0.66180256  0.02314406  0.86087000     0.33800
H1324       H  0.65241374  0.00787340  0.88467470     0.30500
H1325       H  0.59058452  0.98436910  0.90819312     0.33900
H1326       H  0.60557123  0.99806019  0.91863395     0.30500
H1327       H  0.65491987  0.95505933  0.84434511     0.38400
H1328       H  0.65817742  0.96947964  0.81076197     0.33900
C1329       C  0.63200819  0.93049883  0.81720010    -0.19900
C1330       C  0.63722124  0.93445623  0.77914449     0.36400
C1331       C  0.65167548  0.92703170  0.76512983    -0.25800
C1332       C  0.66080295  0.91531535  0.78671502     0.02800
C1333       C  0.65414770  0.90922488  0.82062508     0.27600
C1334       C  0.63994174  0.91652205  0.83491816    -0.25000
N1335       N  0.62910051  0.94657722  0.75459201    -0.82300
H1336       H  0.65630625  0.93115186  0.73789335     0.13400
C1337       C  0.67778904  0.91053175  0.77551362     0.02800
N1338       N  0.66143877  0.89538383  0.84098277    -0.80900
H1339       H  0.63525868  0.91090896  0.86053020     0.18200
C1340       C  0.69116232  0.91534652  0.79915614    -0.25800
C1341       C  0.70754519  0.91128834  0.79038218     0.36300
C1342       C  0.71072403  0.90227124  0.75682206    -0.19800
C1343       C  0.69728526  0.89761035  0.73285743    -0.25000
C1344       C  0.68083755  0.90155234  0.74203564     0.27600
H1345       H  0.68876924  0.92251693  0.82452432     0.13400
N1346       N  0.72094334  0.91672431  0.81497024    -0.82300
H1347       H  0.69962066  0.89082121  0.70693311     0.18300
N1348       N  0.66724950  0.89648338  0.71761849    -0.80900
H1349       H  0.71644231  0.92285155  0.83882030     0.33900
H1350       H  0.72769781  0.92551544  0.79980247     0.38400
H1351       H  0.67157173  0.88999880  0.69409231     0.33800
H1352       H  0.66011039  0.88812213  0.73310130     0.30500
H1353       H  0.67338237  0.89849966  0.85029572     0.33900
H1354       H  0.66218266  0.88536470  0.82222444     0.30500
H1355       H  0.61979367  0.95288916  0.76818292     0.38400
H1356       H  0.63774274  0.95567488  0.74762993     0.33900
C1357       C  0.61663916  0.94884952  0.14713997    -0.19900
C1358       C  0.62877710  0.95619869  0.17214760     0.36400
C1359       C  0.62857035  0.97343560  0.17829540    -0.25800
C1360       C  0.61566188  0.98339339  0.16371986     0.02800
C1361       C  0.60204852  0.97583573  0.14519491     0.27600
C1362       C  0.60245797  0.95868402  0.13815795    -0.25000
N1363       N  0.64070790  0.94643412  0.19344413    -0.82300
H1364       H  0.63862879  0.97909020  0.19453392     0.13400
C1365       C  0.61708940  0.00177003  0.16443368     0.02800
N1366       N  0.58816921  0.98578111  0.13214284    -0.80900
H1367       H  0.59215915  0.95316811  0.12254112     0.18200
C1368       C  0.61833529  0.00993741  0.12929775    -0.25800
C1369       C  0.61846946  0.02730450  0.12653245     0.36300
C1370       C  0.61594075  0.03710742  0.15962754    -0.19800
C1371       C  0.61753559  0.02871084  0.19530068    -0.25000
C1372       C  0.61751040  0.01127776  0.19822811     0.27600
H1373       H  0.61943669  0.00268078  0.10349696     0.13400
N1374       N  0.62232411  0.03453663  0.09043379    -0.82300
H1375       H  0.61728138  0.03578527  0.22143852     0.18300
N1376       N  0.61727141  0.00389369  0.23574980    -0.80900
H1377       H  0.61380678  0.03002809  0.07015885     0.33900
H1378       H  0.63405311  0.03034541  0.08293425     0.38400
H1379       H  0.60654404  0.00802329  0.24880824     0.33800
H1380       H  0.61634862  0.99098359  0.23461883     0.30500
H1381       H  0.57922872  0.97838411  0.11854613     0.33900
H1382       H  0.58267348  0.99077027  0.15622156     0.30500
H1383       H  0.63868085  0.94814413  0.22251049     0.38400
H1384       H  0.65250250  0.95097415  0.18778669     0.33900
C1385       C  0.61578830  0.92999010  0.08656134    -0.19900
C1386       C  0.61723572  0.91466767  0.06623113     0.36400
C1387       C  0.61710406  0.91467447  0.02586696    -0.25800
C1388       C  0.61540145  0.92943028  0.00473685     0.02800
C1389       C  0.61388488  0.94456717  0.02398424     0.27600
C1390       C  0.61478086  0.94476124  0.06402555    -0.25000
N1391       N  0.61953291  0.89915414  0.08646263    -0.82300
H1392       H  0.61850240  0.90308052  0.01069950     0.13400
C1393       C  0.61626211  0.92925440  0.96241730     0.02800
N1394       N  0.61138448  0.95980621  0.00268329    -0.80900
H1395       H  0.61543252  0.95686657  0.07667393     0.18200
C1396       C  0.60184185  0.92706771  0.94016054    -0.25800
C1397       C  0.60168820  0.92929766  0.90017660     0.36300
C1398       C  0.61653358  0.93374354  0.88124381    -0.19800
C1399       C  0.63097983  0.93560148  0.90472734    -0.25000
C1400       C  0.63109333  0.93307121  0.94441782     0.27600
H1401       H  0.59036055  0.92434181  0.95417829     0.13400
N1402       N  0.58609160  0.92820380  0.88013768    -0.82300
H1403       H  0.64236029  0.93945632  0.89186019     0.18300
N1404       N  0.64626127  0.93446761  0.96656979    -0.80900
H1405       H  0.57801892  0.93692495  0.89157841     0.33900
H1406       H  0.58124278  0.91635191  0.88491409     0.38400
H1407       H  0.65618533  0.93692127  0.94886127     0.33800
H1408       H  0.64526974  0.94468572  0.98460992     0.30500
H1409       H  0.60982617  0.96985937  0.02103166     0.33900
H1410       H  0.62204482  0.96223350  0.98744412     0.30500
H1411       H  0.60873057  0.89645560  0.10085383     0.38400
H1412       H  0.62129682  0.88937019  0.06748625     0.33900
C1413       C  0.71293739  0.89800692  0.21773899    -0.19900
C1414       C  0.69900949  0.90140708  0.24025245     0.36400
C1415       C  0.68339198  0.90372109  0.22238173    -0.25800
C1416       C  0.68120647  0.90260596  0.18265060     0.02800
C1417       C  0.69485018  0.89845530  0.16029273     0.27600
C1418       C  0.71056546  0.89628009  0.17799672    -0.25000
N1419       N  0.70072473  0.90300117  0.28102740    -0.82300
H1420       H  0.67289730  0.90701140  0.23945999     0.13400
C1421       C  0.66485490  0.90731859  0.16506165     0.02800
N1422       N  0.69270243  0.89667281  0.11966600    -0.80900
H1423       H  0.72106157  0.89348414  0.16051195     0.18200
C1424       C  0.66410955  0.92090875  0.13983190    -0.25800
C1425       C  0.64892880  0.92791635  0.12769500     0.36300
C1426       C  0.63380338  0.92168016  0.14194815    -0.19800
C1427       C  0.63472727  0.90693440  0.16426659    -0.25000
C1428       C  0.64991243  0.89972725  0.17583808     0.27600
H1429       H  0.67545854  0.92669031  0.13081177     0.13400
N1430       N  0.64901534  0.94205736  0.10255311    -0.82300
H1431       H  0.62365330  0.90058371  0.17269049     0.18300
N1432       N  0.64961400  0.88469904  0.19838605    -0.80900
H1433       H  0.65472760  0.93854773  0.07739838     0.33900
H1434       H  0.65615218  0.95139009  0.11536145     0.38400
H1435       H  0.64327194  0.87574423  0.18230298     0.33800
H1436       H  0.66148079  0.87984765  0.20317836     0.30500
H1437       H  0.70393772  0.89363313  0.10729485     0.33900
H1438       H  0.68478488  0.88661658  0.11483727     0.30500
H1439       H  0.70718628  0.91399285  0.28650563     0.38400
H1440       H  0.68915759  0.90447183  0.29327937     0.33900
C1441       C  0.36847325  0.07215954  0.83687981    -0.19900
C1442       C  0.36411374  0.08957834  0.83673211     0.36400
C1443       C  0.34812589  0.09472298  0.82496323    -0.25800
C1444       C  0.33608665  0.08341077  0.81294749     0.02800
C1445       C  0.33987883  0.06632968  0.81337293     0.27600
C1446       C  0.35565246  0.06103106  0.82540530    -0.25000
N1447       N  0.37524544  0.10261479  0.84839007    -0.82300
H1448       H  0.34509973  0.10787371  0.82488039     0.13400
C1449       C  0.31973789  0.08965646  0.79915326     0.02800
N1450       N  0.32802705  0.05384655  0.80216938    -0.80900
H1451       H  0.35710554  0.04774623  0.82768411     0.18200
C1452       C  0.31749245  0.09337832  0.76029534    -0.25800
C1453       C  0.30171579  0.09706250  0.74458183     0.36300
C1454       C  0.28786733  0.09731483  0.76861733    -0.19800
C1455       C  0.29036421  0.09424211  0.80798121    -0.25000
C1456       C  0.30616081  0.09034253  0.82345298     0.27600
H1457       H  0.32802870  0.09267797  0.74185766     0.13400
N1458       N  0.29972760  0.09990465  0.70413578    -0.82300
H1459       H  0.27989170  0.09447409  0.82664308     0.18300
N1460       N  0.30845930  0.08686245  0.86357029    -0.80900
H1461       H  0.31120736  0.09995117  0.69106330     0.33900
H1462       H  0.29323203  0.08980004  0.69273409     0.38400
H1463       H  0.29726669  0.08809592  0.87759645     0.33800
H1464       H  0.31204658  0.07440664  0.86658238     0.30500
H1465       H  0.32568853  0.04655556  0.82626758     0.33900
H1466       H  0.31670744  0.05897026  0.79313559     0.30500
H1467       H  0.38712830  0.09834018  0.85426482     0.38400
H1468       H  0.37635952  0.11078941  0.82525516     0.33900
C1469       C  0.38179689  0.07490962  0.09420090    -0.19900
C1470       C  0.39718142  0.07148518  0.07679302     0.36400
C1471       C  0.39926503  0.07539548  0.03805393    -0.25800
C1472       C  0.38657303  0.08316405  0.01651157     0.02800
C1473       C  0.37297734  0.08990082  0.03572182     0.27600
C1474       C  0.37101458  0.08610486  0.07442500    -0.25000
N1475       N  0.41007295  0.06257206  0.09705728    -0.82300
H1476       H  0.41013219  0.07079330  0.02397851     0.13400
C1477       C  0.38598489  0.08073071  0.97450345     0.02800
N1478       N  0.36055976  0.09997266  0.01643733    -0.80900
H1479       H  0.36044298  0.09146849  0.08803120     0.18200
C1480       C  0.37293653  0.07144816  0.95896480    -0.25800
C1481       C  0.37256469  0.06670197  0.92063529     0.36300
C1482       C  0.38578227  0.07101740  0.89621629    -0.19800
C1483       C  0.39824764  0.08154048  0.91185303    -0.25000
C1484       C  0.39861622  0.08613634  0.95065186     0.27600
H1485       H  0.36313058  0.06727116  0.97722367     0.13400
N1486       N  0.35894393  0.05681880  0.90719608    -0.82300
H1487       H  0.40791194  0.08626825  0.89415275     0.18300
N1488       N  0.41177851  0.09624115  0.96596828    -0.80900
H1489       H  0.34806032  0.06365958  0.91065482     0.33900
H1490       H  0.35826798  0.04612512  0.92421550     0.38400
H1491       H  0.42019334  0.09917247  0.94480996     0.33800
H1492       H  0.40656058  0.10747693  0.97461620     0.30500
H1493       H  0.36034059  0.11148600  0.03008867     0.33900
H1494       H  0.36377885  0.10251258  0.98831898     0.30500
H1495       H  0.41269194  0.05168280  0.08224244     0.38400
H1496       H  0.42068961  0.06995045  0.09729425     0.33900
C1497       C  0.35996528  0.07302140  0.14728315    -0.19900
C1498       C  0.34523339  0.06885412  0.12628498     0.36400
C1499       C  0.32966010  0.07269390  0.14056886    -0.25800
C1500       C  0.32806289  0.08032470  0.17598881     0.02800
C1501       C  0.34243483  0.08459349  0.19739940     0.27600
C1502       C  0.35799713  0.08065614  0.18327489    -0.25000
N1503       N  0.34598435  0.06020511  0.09074841    -0.82300
H1504       H  0.31865310  0.06914240  0.12433263     0.13400
C1505       C  0.31126963  0.08237940  0.19115888     0.02800
N1506       N  0.34181098  0.09267078  0.23389107    -0.80900
H1507       H  0.36843345  0.08314080  0.20212784     0.18200
C1508       C  0.30671496  0.07263152  0.22244362    -0.25800
C1509       C  0.29085500  0.07393480  0.23754463     0.36300
C1510       C  0.27935721  0.08543542  0.22118356    -0.19800
C1511       C  0.28386862  0.09492031  0.18926155    -0.25000
C1512       C  0.29974476  0.09351088  0.17410613     0.27600
H1513       H  0.31557182  0.06384568  0.23483785     0.13400
N1514       N  0.28631317  0.06335144  0.26881550    -0.82300
H1515       H  0.27504877  0.10359786  0.17636048     0.18300
N1516       N  0.30425452  0.10333091  0.14156889    -0.80900
H1517       H  0.29627633  0.05581593  0.27773534     0.33900
H1518       H  0.27706924  0.05533892  0.25867349     0.38400
H1519       H  0.29433987  0.11083955  0.13224056     0.33800
H1520       H  0.31372500  0.11134618  0.15042030     0.30500
H1521       H  0.34798274  0.10401257  0.23147983     0.33900
H1522       H  0.32973572  0.09567708  0.24110289     0.30500
H1523       H  0.33969310  0.04894829  0.09355365     0.38400
H1524       H  0.33976953  0.06732503  0.06974185     0.33900
C1525       C  0.37859018  0.95759644  0.83830028    -0.19900
C1526       C  0.36736511  0.96807455  0.81690619     0.36400
C1527       C  0.37023490  0.98532849  0.81486051    -0.25800
C1528       C  0.38461265  0.99234759  0.83087309     0.02800
C1529       C  0.39713542  0.98175306  0.84556605     0.27600
C1530       C  0.39406769  0.96465580  0.84896124    -0.25000
N1531       N  0.35354596  0.96154296  0.79558574    -0.82300
H1532       H  0.36094826  0.99333393  0.80136152     0.13400
C1533       C  0.38582943  0.01068563  0.83580908     0.02800
N1534       N  0.41271173  0.98853356  0.85843983    -0.80900
H1535       H  0.40346036  0.95690959  0.86279591     0.18200
C1536       C  0.38817939  0.01685757  0.87276403    -0.25800
C1537       C  0.38899948  0.03395988  0.88007269     0.36300
C1538       C  0.38654249  0.04571823  0.84955371    -0.19800
C1539       C  0.38551350  0.03913738  0.81199491    -0.25000
C1540       C  0.38473360  0.02193366  0.80494424     0.27600
H1541       H  0.38956213  0.00820767  0.89654650     0.13400
N1542       N  0.39360118  0.03885355  0.91809679    -0.82300
H1543       H  0.38443666  0.04763429  0.78790736     0.18300
N1544       N  0.38273453  0.01587626  0.76660782    -0.80900
H1545       H  0.40516514  0.03363813  0.92507334     0.33900
H1546       H  0.38510697  0.03377183  0.93688245     0.38400
H1547       H  0.38197647  0.02577796  0.74708591     0.33800
H1548       H  0.39339287  0.00914428  0.76032634     0.30500
H1549       H  0.42059431  0.97911359  0.86886617     0.33900
H1550       H  0.41837438  0.99371791  0.83465776     0.30500
H1551       H  0.35515604  0.96438733  0.76675008     0.38400
H1552       H  0.34285521  0.96775846  0.80385860     0.33900
C1553       C  0.27878084  0.90623853  0.76933963    -0.19900
C1554       C  0.29214807  0.90903499  0.74472818     0.36400
C1555       C  0.30794747  0.91236336  0.76048768    -0.25800
C1556       C  0.31080495  0.91286389  0.80014505     0.02800
C1557       C  0.29767666  0.90948492  0.82468687     0.27600
C1558       C  0.28183823  0.90626462  0.80907276    -0.25000
N1559       N  0.28967332  0.90895287  0.70392346    -0.82300
H1560       H  0.31804077  0.91509946  0.74170622     0.13400
C1561       C  0.32736191  0.91799964  0.81528761     0.02800
N1562       N  0.30045723  0.90952391  0.86539567    -0.80900
H1563       H  0.27175597  0.90404294  0.82819854     0.18200
C1564       C  0.32843900  0.93182304  0.83934134    -0.25800
C1565       C  0.34378153  0.93824239  0.85151366     0.36300
C1566       C  0.35872559  0.93158288  0.83733241    -0.19800
C1567       C  0.35738797  0.91669025  0.81604701    -0.25000
C1568       C  0.34210774  0.90993519  0.80485800     0.27600
H1569       H  0.31723501  0.93789170  0.84846235     0.13400
N1570       N  0.34405125  0.95166662  0.87813824    -0.82300
H1571       H  0.36823849  0.90968735  0.80853608     0.18300
N1572       N  0.34216699  0.89451834  0.78430417    -0.80900
H1573       H  0.33854254  0.94752915  0.90314039     0.33900
H1574       H  0.33681277  0.96143462  0.86698413     0.38400
H1575       H  0.34659667  0.89695219  0.75705365     0.33800
H1576       H  0.33034896  0.88949690  0.78106368     0.30500
H1577       H  0.28950896  0.90693879  0.87947482     0.33900
H1578       H  0.30870198  0.89983750  0.87223495     0.30500
H1579       H  0.28276040  0.91954981  0.69640540     0.38400
H1580       H  0.30095688  0.91014797  0.69025187     0.33900
C1581       C  0.37246295  0.95760676  0.13818893    -0.19900
C1582       C  0.37626758  0.96704817  0.17171855     0.36400
C1583       C  0.37626029  0.98453699  0.17040531    -0.25800
C1584       C  0.37086290  0.99337109  0.13767282     0.02800
C1585       C  0.36562050  0.98419777  0.10538666     0.27600
C1586       C  0.36778581  0.96687026  0.10503621    -0.25000
N1587       N  0.37990097  0.95899733  0.20761043    -0.82300
H1588       H  0.38050915  0.99118757  0.19553009     0.13400
C1589       C  0.37175114  0.01204370  0.13652821     0.02800
N1590       N  0.35788392  0.99246553  0.07294126    -0.80900
H1591       H  0.36543489  0.96100832  0.07813346     0.18200
C1592       C  0.37719099  0.01994998  0.10339007    -0.25800
C1593       C  0.37752488  0.03729028  0.09964696     0.36300
C1594       C  0.37557796  0.04754652  0.13238910    -0.19800
C1595       C  0.36995898  0.03939431  0.16576746    -0.25000
C1596       C  0.36728695  0.02209527  0.16752468     0.27600
H1597       H  0.38066597  0.01264032  0.07903008     0.13400
N1598       N  0.37842408  0.04390788  0.06173672    -0.82300
H1599       H  0.36745528  0.04670337  0.19081522     0.18300
N1600       N  0.35979838  0.01483110  0.20044395    -0.80900
H1601       H  0.38903701  0.03915794  0.04921624     0.33900
H1602       H  0.36819006  0.03968085  0.04579668     0.38400
H1603       H  0.35715984  0.02394148  0.22056353     0.33800
H1604       H  0.34844389  0.00982498  0.19146121     0.30500
H1605       H  0.35461322  0.98398029  0.05160184     0.33900
H1606       H  0.34685218  0.99778022  0.08205196     0.30500
H1607       H  0.39169253  0.96267573  0.21705114     0.38400
H1608       H  0.37138045  0.96314360  0.22740601     0.33900
C1609       C  0.37340670  0.93111590  0.09581175    -0.19900
C1610       C  0.35887677  0.93170045  0.07155870     0.36400
C1611       C  0.35990307  0.92866684  0.03222876    -0.25800
C1612       C  0.37498588  0.92485401  0.01570257     0.02800
C1613       C  0.38891602  0.92190291  0.03970920     0.27600
C1614       C  0.38772352  0.92415521  0.07947320    -0.25000
N1615       N  0.34318578  0.93663287  0.08597624    -0.82300
H1616       H  0.34903198  0.93065314  0.01396044     0.13400
C1617       C  0.37655781  0.92776123  0.97391929     0.02800
N1618       N  0.40454333  0.91777708  0.02347565    -0.80900
H1619       H  0.39848392  0.92108248  0.09687767     0.18200
C1620       C  0.37730330  0.94424763  0.96143947    -0.25800
C1621       C  0.37692290  0.94854514  0.92255194     0.36300
C1622       C  0.37702090  0.93585584  0.89399236    -0.19800
C1623       C  0.37604723  0.91916765  0.90740808    -0.25000
C1624       C  0.37560856  0.91503076  0.94665113     0.27600
H1625       H  0.37728403  0.95410533  0.98241843     0.13400
N1626       N  0.37509048  0.96584446  0.91335060    -0.82300
H1627       H  0.37533658  0.90921638  0.88677964     0.18300
N1628       N  0.37337970  0.89807275  0.95862549    -0.80900
H1629       H  0.36432821  0.97029384  0.92574509     0.33900
H1630       H  0.38512363  0.97221059  0.92564686     0.38400
H1631       H  0.37212665  0.89030950  0.93492167     0.33800
H1632       H  0.38411331  0.89421372  0.97337985     0.30500
H1633       H  0.41386609  0.91717012  0.04468766     0.33900
H1634       H  0.40360081  0.90584322  0.01213260     0.30500
H1635       H  0.33894810  0.94710799  0.07074069     0.38400
H1636       H  0.33480041  0.92698660  0.08088196     0.33900
C1637       C  0.28284525  0.89612467  0.22590960    -0.19900
C1638       C  0.28580873  0.89601181  0.18630834     0.36400
C1639       C  0.30152732  0.90031900  0.17303247    -0.25800
C1640       C  0.31433476  0.90487584  0.19859534     0.02800
C1641       C  0.31168513  0.90427766  0.23812637     0.27600
C1642       C  0.29608023  0.89972052  0.25139217    -0.25000
N1643       N  0.27282999  0.89201407  0.15938306    -0.82300
H1644       H  0.30350851  0.90088774  0.14256699     0.13400
C1645       C  0.32953151  0.91269967  0.18393984     0.02800
N1646       N  0.32467222  0.90910767  0.26452410    -0.80900
H1647       H  0.29405187  0.89985922  0.28183500     0.18200
C1648       C  0.33059810  0.92996416  0.18600720    -0.25800
C1649       C  0.34426531  0.93867525  0.17257300     0.36300
C1650       C  0.35805867  0.92986574  0.15740137    -0.19800
C1651       C  0.35667356  0.91227828  0.15568630    -0.25000
C1652       C  0.34271066  0.90367917  0.16834071     0.27600
H1653       H  0.32035557  0.93692637  0.19746596     0.13400
N1654       N  0.34322832  0.95642756  0.17305981    -0.82300
H1655       H  0.36662262  0.90508620  0.14371310     0.18300
N1656       N  0.34251530  0.88586359  0.16524129    -0.80900
H1657       H  0.34150617  0.96021132  0.20119443     0.33900
H1658       H  0.33287553  0.96015572  0.15659548     0.38400
H1659       H  0.34252321  0.88298213  0.13617755     0.33800
H1660       H  0.33174444  0.88079418  0.17614063     0.30500
H1661       H  0.32069765  0.90828589  0.29264314     0.33900
H1662       H  0.33434633  0.90054687  0.26212924     0.30500
H1663       H  0.27110326  0.90217298  0.14087384     0.38400
H1664       H  0.27673772  0.88190071  0.14328346     0.33900
C1665       C  0.07006508  0.36278330  0.82421095    -0.19900
C1666       C  0.07013146  0.35891115  0.78458173     0.36400
C1667       C  0.07676899  0.34381783  0.77216348    -0.25800
C1668       C  0.08248766  0.33164759  0.79813730     0.02800
C1669       C  0.08277335  0.33533254  0.83747604     0.27600
C1670       C  0.07713409  0.35083414  0.84989642    -0.25000
N1671       N  0.06282283  0.37003744  0.75670503    -0.82300
H1672       H  0.07644695  0.34113580  0.74186700     0.13400
C1673       C  0.08583594  0.31460241  0.78372001     0.02800
N1674       N  0.08744066  0.32313346  0.86583099    -0.80900
H1675       H  0.07691097  0.35254651  0.88039557     0.18200
C1676       C  0.10138683  0.30698327  0.78964728    -0.25800
C1677       C  0.10446612  0.29074232  0.77641692     0.36300
C1678       C  0.09191168  0.28226247  0.75569426    -0.19800
C1679       C  0.07653948  0.29006170  0.74923379    -0.25000
C1680       C  0.07331651  0.30590849  0.76362263     0.27600
H1681       H  0.11117536  0.31374765  0.80428468     0.13400
N1682       N  0.12029058  0.28295542  0.78352804    -0.82300
H1683       H  0.06672054  0.28358258  0.73392609     0.18300
N1684       N  0.05711616  0.31301425  0.75856667    -0.80900
H1685       H  0.12807402  0.29079554  0.79940800     0.33900
H1686       H  0.12580198  0.28128721  0.75715493     0.38400
H1687       H  0.05434746  0.31374269  0.72928274     0.33800
H1688       H  0.04863514  0.30495559  0.77094387     0.30500
H1689       H  0.08010517  0.31257936  0.86178345     0.33900
H1690       H  0.09981621  0.31988043  0.86247040     0.30500
H1691       H  0.07181049  0.37309561  0.73692430     0.38400
H1692       H  0.05330681  0.36374543  0.74221275     0.33900
C1693       C  0.06156523  0.38000073  0.88318091    -0.19900
C1694       C  0.04805408  0.37930059  0.90848212     0.36400
C1695       C  0.05106515  0.37799412  0.94776006    -0.25800
C1696       C  0.06643508  0.38197466  0.96469571     0.02800
C1697       C  0.07966477  0.38512290  0.94007893     0.27600
C1698       C  0.07730786  0.38333973  0.90021697    -0.25000
N1699       N  0.03119820  0.38160347  0.89590532    -0.82300
H1700       H  0.04068348  0.37483399  0.96520812     0.13400
C1701       C  0.06765602  0.38314118  0.00769414     0.02800
N1702       N  0.09538301  0.39052170  0.95491500    -0.80900
H1703       H  0.08787675  0.38494944  0.88219223     0.18200
C1704       C  0.08183783  0.37788841  0.02866391    -0.25800
C1705       C  0.08215915  0.37743590  0.06900727     0.36300
C1706       C  0.06738504  0.37999182  0.08963013    -0.19800
C1707       C  0.05317017  0.38447444  0.06753279    -0.25000
C1708       C  0.05381412  0.38820711  0.02857836     0.27600
H1709       H  0.09276236  0.37386849  0.01412058     0.13400
N1710       N  0.09750066  0.37388387  0.08873882    -0.82300
H1711       H  0.04115642  0.38532070  0.07946007     0.18300
N1712       N  0.04031538  0.39718564  0.01024632    -0.80900
H1713       H  0.10183168  0.36236633  0.07950805     0.33900
H1714       H  0.10605076  0.38295348  0.08103441     0.38400
H1715       H  0.03121310  0.40018757  0.02974482     0.33800
H1716       H  0.04501045  0.40846018  0.00028731     0.30500
H1717       H  0.10436398  0.38203050  0.94636411     0.33900
H1718       H  0.09799759  0.40205118  0.94251355     0.30500
H1719       H  0.02421260  0.37170168  0.90620776     0.38400
H1720       H  0.02670272  0.39247238  0.90824720     0.33900
C1721       C  0.07439207  0.35937784  0.14125566    -0.19900
C1722       C  0.08908683  0.35558972  0.16312926     0.36400
C1723       C  0.09284014  0.33899595  0.17302446    -0.25800
C1724       C  0.08290333  0.32586552  0.16023653     0.02800
C1725       C  0.06969041  0.32926648  0.13412292     0.27600
C1726       C  0.06614166  0.34579672  0.12378745    -0.25000
N1727       N  0.10074887  0.36816088  0.17397842    -0.82300
H1728       H  0.10352008  0.33635757  0.19146856     0.13400
C1729       C  0.08575889  0.30909894  0.17718947     0.02800
N1730       N  0.05894932  0.31650223  0.11931923    -0.80900
H1731       H  0.05563532  0.34815576  0.10462675     0.18200
C1732       C  0.07979450  0.30590584  0.21364455    -0.25800
C1733       C  0.08160007  0.29015930  0.23096155     0.36300
C1734       C  0.08985297  0.27726758  0.21148574    -0.19800
C1735       C  0.09599349  0.28062528  0.17497206    -0.25000
C1736       C  0.09404675  0.29642659  0.15765848     0.27600
H1737       H  0.07341562  0.31574291  0.22840032     0.13400
N1738       N  0.07486806  0.28726401  0.26801648    -0.82300
H1739       H  0.10238452  0.27091094  0.15988783     0.18300
N1740       N  0.10068735  0.29974523  0.12071562    -0.80900
H1741       H  0.06985374  0.29820955  0.27887199     0.33900
H1742       H  0.06500404  0.27900592  0.26449897     0.38400
H1743       H  0.10673833  0.28921869  0.11054697     0.33800
H1744       H  0.09077631  0.30213757  0.10169287     0.30500
H1745       H  0.06033635  0.31615592  0.08974900     0.33900
H1746       H  0.06220200  0.30474338  0.12988914     0.30500
H1747       H  0.11202930  0.36533622  0.16154879     0.38400
H1748       H  0.10263720  0.36759502  0.20359616     0.33900
C1749       C  0.95533201  0.37240723  0.84212194    -0.19900
C1750       C  0.96587359  0.38612200  0.85056952     0.36400
C1751       C  0.98232781  0.38620350  0.83873529    -0.25800
C1752       C  0.98887199  0.37299839  0.81806294     0.02800
C1753       C  0.97841893  0.35985681  0.80706386     0.27600
C1754       C  0.96184899  0.35979851  0.81854634    -0.25000
N1755       N  0.96010772  0.39984486  0.87248208    -0.82300
H1756       H  0.99028976  0.39639545  0.84733443     0.13400
C1757       C  0.00707182  0.37231039  0.81260634     0.02800
N1758       N  0.98472353  0.34655569  0.78433396    -0.80900
H1759       H  0.95407674  0.34988562  0.80801638     0.18200
C1760       C  0.01613639  0.35921196  0.82937416    -0.25800
C1761       C  0.03333918  0.36028087  0.83499622     0.36300
C1762       C  0.04191347  0.37501913  0.82418278    -0.19800
C1763       C  0.03298009  0.38643957  0.80039458    -0.25000
C1764       C  0.01564720  0.38550087  0.79557726     0.27600
H1765       H  0.00969526  0.34869285  0.84141341     0.13400
N1766       N  0.04167093  0.34705232  0.85533753    -0.82300
H1767       H  0.03919386  0.39654629  0.78644129     0.18300
N1768       N  0.00664019  0.39811674  0.77435551    -0.80900
H1769       H  0.04004574  0.33613710  0.83968480     0.33900
H1770       H  0.03612222  0.34539670  0.88171754     0.38400
H1771       H  0.01470303  0.40708355  0.76383429     0.33800
H1772       H  0.00106136  0.39241049  0.75061520     0.30500
H1773       H  0.97554837  0.33771369  0.77877072     0.33900
H1774       H  0.98790766  0.35161977  0.75796157     0.30500
H1775       H  0.96773104  0.40090604  0.89691542     0.38400
H1776       H  0.96134094  0.41068540  0.85615378     0.33900
C1777       C  0.92844690  0.35495042  0.84878808    -0.19900
C1778       C  0.91268069  0.35259954  0.83026822     0.36400
C1779       C  0.90740729  0.33648330  0.82062546    -0.25800
C1780       C  0.91691035  0.32250022  0.83068691     0.02800
C1781       C  0.93132532  0.32441984  0.85336820     0.27600
C1782       C  0.93665565  0.34047183  0.86298211    -0.25000
N1783       N  0.90159991  0.36618562  0.82211853    -0.82300
H1784       H  0.89590340  0.33490348  0.80451149     0.13400
C1785       C  0.91267212  0.30614180  0.81408356     0.02800
N1786       N  0.94091899  0.31007267  0.86502283    -0.80900
H1787       H  0.94807055  0.34170586  0.87950456     0.18200
C1788       C  0.92014384  0.30160374  0.78010391    -0.25800
C1789       C  0.91750328  0.28587547  0.76396115     0.36300
C1790       C  0.90699986  0.27440012  0.78221447    -0.19800
C1791       C  0.89923626  0.27916094  0.81596885    -0.25000
C1792       C  0.90194575  0.29497071  0.83204574     0.27600
H1793       H  0.92839805  0.31030429  0.76656989     0.13400
N1794       N  0.92588494  0.28140492  0.72977829    -0.82300
H1795       H  0.89113968  0.27047662  0.83000366     0.18300
N1796       N  0.89386647  0.29973446  0.86638149    -0.80900
H1797       H  0.93275527  0.29141156  0.71958231     0.33900
H1798       H  0.93441882  0.27202821  0.73707150     0.38400
H1799       H  0.88620798  0.29017374  0.87575124     0.33800
H1800       H  0.90298710  0.30133504  0.88770894     0.30500
H1801       H  0.95144147  0.31361845  0.88087135     0.33900
H1802       H  0.93373044  0.30297365  0.88334250     0.30500
H1803       H  0.89063942  0.36401196  0.83649811     0.38400
H1804       H  0.89864628  0.36620783  0.79288340     0.33900
C1805       C  0.96036257  0.37062425  0.15605383    -0.19900
C1806       C  0.97161845  0.36042307  0.13582803     0.36400
C1807       C  0.98872239  0.36318404  0.13861980    -0.25800
C1808       C  0.99548193  0.37568288  0.16175177     0.02800
C1809       C  0.98462901  0.38630857  0.18112312     0.27600
C1810       C  0.96746105  0.38417130  0.17645866    -0.25000
N1811       N  0.96585340  0.34705056  0.11229947    -0.82300
H1812       H  0.99690417  0.35520568  0.12282658     0.13400
C1813       C  0.01385836  0.37726275  0.16375049     0.02800
N1814       N  0.99041285  0.39929645  0.20611817    -0.80900
H1815       H  0.95995844  0.39352163  0.18943399     0.18200
C1816       C  0.02133854  0.39189354  0.15088574    -0.25800
C1817       C  0.03849333  0.39264201  0.14535277     0.36300
C1818       C  0.04838985  0.37792218  0.14869747    -0.19800
C1819       C  0.04102750  0.36427385  0.16762619    -0.25000
C1820       C  0.02410638  0.36374258  0.17503038     0.27600
H1821       H  0.01374596  0.40267720  0.14379870     0.13400
N1822       N  0.04554237  0.40811179  0.13353827    -0.82300
H1823       H  0.04828752  0.35376966  0.17770000     0.18300
N1824       N  0.01779875  0.34917567  0.19375345    -0.80900
H1825       H  0.04354764  0.41680570  0.15498301     0.33900
H1826       H  0.03924323  0.41229306  0.10881699     0.38400
H1827       H  0.02403967  0.34800667  0.22016691     0.33800
H1828       H  0.00533837  0.35055408  0.20013721     0.30500
H1829       H  0.98575768  0.39687739  0.23316778     0.33900
H1830       H  0.00324113  0.39905528  0.20983657     0.30500
H1831       H  0.96949270  0.34943065  0.08436181     0.38400
H1832       H  0.97166122  0.33602192  0.12139575     0.33900
C1833       C  0.93672771  0.37355911  0.90131512    -0.19900
C1834       C  0.92170163  0.37571449  0.92115831     0.36400
C1835       C  0.92169301  0.37573828  0.96139238    -0.25800
C1836       C  0.93615168  0.37256932  0.98303760     0.02800
C1837       C  0.95085063  0.36896219  0.96417827     0.27600
C1838       C  0.95105780  0.36967608  0.92404805    -0.25000
N1839       N  0.90624641  0.37752220  0.90069723    -0.82300
H1840       H  0.91017614  0.37778022  0.97583725     0.13400
C1841       C  0.93568442  0.37192857  0.02545096     0.02800
N1842       N  0.96533162  0.36367838  0.98583942    -0.80900
H1843       H  0.96247462  0.36624503  0.91081599     0.18200
C1844       C  0.93130875  0.35711284  0.04350475    -0.25800
C1845       C  0.93252439  0.35517299  0.08347361     0.36300
C1846       C  0.93775895  0.36879554  0.10712152    -0.19800
C1847       C  0.94241862  0.38355997  0.08770397    -0.25000
C1848       C  0.94107960  0.38538381  0.04775534     0.27600
H1849       H  0.92767166  0.34656766  0.02615125     0.13400
N1850       N  0.92996831  0.33881031  0.09854080    -0.82300
H1851       H  0.94720912  0.39389843  0.10419721     0.18300
N1852       N  0.94506623  0.40094644  0.02977889    -0.80900
H1853       H  0.91795908  0.33512679  0.09087732     0.33900
H1854       H  0.93820532  0.33061428  0.08575883     0.38400
H1855       H  0.94845365  0.40977195  0.05027445     0.33800
H1856       H  0.95541427  0.39909085  0.01307512     0.30500
H1857       H  0.97500046  0.36081735  0.96772406     0.33900
H1858       H  0.96937738  0.37363793  0.00252819     0.30500
H1859       H  0.89853374  0.36782327  0.90903501     0.38400
H1860       H  0.90076334  0.38870298  0.90886442     0.33900
C1861       C  0.90434897  0.27456648  0.24515906    -0.19900
C1862       C  0.90675322  0.28823778  0.27001568     0.36400
C1863       C  0.91076928  0.30395371  0.25481808    -0.25800
C1864       C  0.91227704  0.30645062  0.21539294     0.02800
C1865       C  0.90919540  0.29306508  0.19043470     0.27600
C1866       C  0.90513058  0.27734189  0.20552578    -0.25000
N1867       N  0.90554975  0.28609197  0.31063725    -0.82300
H1868       H  0.91320251  0.31425602  0.27389591     0.13400
C1869       C  0.91908135  0.32250516  0.20119792     0.02800
N1870       N  0.91124614  0.29521277  0.15005159    -0.80900
H1871       H  0.90336072  0.26700719  0.18621176     0.18200
C1872       C  0.93584414  0.32566499  0.20833693    -0.25800
C1873       C  0.94369831  0.33987301  0.19422147     0.36300
C1874       C  0.93451384  0.35171531  0.17084009    -0.19800
C1875       C  0.91719317  0.34895766  0.16715083    -0.25000
C1876       C  0.90950196  0.33457225  0.18109758     0.27600
H1877       H  0.94310171  0.31675491  0.22515938     0.13400
N1878       N  0.96058427  0.34174925  0.20684195    -0.82300
H1879       H  0.90952544  0.35794141  0.15161814     0.18300
N1880       N  0.89194631  0.33289434  0.17480628    -0.80900
H1881       H  0.96867991  0.33840030  0.18568484     0.33900
H1882       H  0.96297161  0.35345805  0.21815930     0.38400
H1883       H  0.88969613  0.33198609  0.14535452     0.33800
H1884       H  0.88745168  0.32205334  0.18728681     0.30500
H1885       H  0.90929916  0.28398207  0.13580884     0.33900
H1886       H  0.90203300  0.30337030  0.13989264     0.30500
H1887       H  0.89325975  0.28315645  0.31621305     0.38400
H1888       H  0.90807836  0.29723655  0.32478431     0.33900
C1889       C  0.08472347  0.46889510  0.71720658    -0.19900
C1890       C  0.09747715  0.46343274  0.74289181     0.36400
C1891       C  0.09513573  0.44902032  0.76528039    -0.25800
C1892       C  0.08056048  0.43968840  0.76162939     0.02800
C1893       C  0.06806063  0.44485808  0.73534885     0.27600
C1894       C  0.07020354  0.45941040  0.71374444    -0.25000
N1895       N  0.11274240  0.47246460  0.74607985    -0.82300
H1896       H  0.10471202  0.44497387  0.78553052     0.13400
C1897       C  0.07802665  0.42469323  0.78583436     0.02800
N1898       N  0.05308487  0.43537922  0.73116514    -0.80900
H1899       H  0.06019064  0.46353362  0.69486472     0.18200
C1900       C  0.06535574  0.42510820  0.81232644    -0.25800
C1901       C  0.06010037  0.41060221  0.83084433     0.36300
C1902       C  0.06738423  0.39495709  0.82245133    -0.19800
C1903       C  0.08185143  0.39530975  0.80045178    -0.25000
C1904       C  0.08678398  0.40964708  0.78079439     0.27600
H1905       H  0.05895327  0.43672277  0.81743973     0.13400
N1906       N  0.04688180  0.41178482  0.85712801    -0.82300
H1907       H  0.08928493  0.38427608  0.79685605     0.18300
N1908       N  0.10032514  0.40815151  0.75515426    -0.80900
H1909       H  0.03663545  0.41717356  0.84293149     0.33900
H1910       H  0.05060668  0.41975456  0.87913909     0.38400
H1911       H  0.09681089  0.39968502  0.73396263     0.33800
H1912       H  0.10273959  0.41928994  0.74103743     0.30500
H1913       H  0.04500947  0.44093052  0.71099640     0.33900
H1914       H  0.05624865  0.42373513  0.72037462     0.30500
H1915       H  0.11847283  0.47177417  0.71972968     0.38400
H1916       H  0.12078473  0.46681764  0.76618318     0.33900
C1917       C  0.07125401  0.60158647  0.82615791    -0.19900
C1918       C  0.06701919  0.58448738  0.83270940     0.36400
C1919       C  0.07396558  0.57191928  0.81075817    -0.25800
C1920       C  0.08435145  0.57547257  0.78048815     0.02800
C1921       C  0.08815371  0.59218286  0.77232196     0.27600
C1922       C  0.08122382  0.60483461  0.79415894    -0.25000
N1923       N  0.05528668  0.57919206  0.86027072    -0.82300
H1924       H  0.07042568  0.55913767  0.81613701     0.13400
C1925       C  0.08872490  0.56160653  0.75483983     0.02800
N1926       N  0.09889879  0.59687851  0.74197442    -0.80900
H1927       H  0.08364767  0.61733113  0.78465340     0.18200
C1928       C  0.08204654  0.56152352  0.71758087    -0.25800
C1929       C  0.08263345  0.54716170  0.69525648     0.36300
C1930       C  0.08947149  0.53224111  0.71079796    -0.19800
C1931       C  0.09815151  0.53316050  0.74626615    -0.25000
C1932       C  0.09769834  0.54766389  0.76850734     0.27600
H1933       H  0.07550348  0.57239399  0.70648849     0.13400
N1934       N  0.07529011  0.54749218  0.65757595    -0.82300
H1935       H  0.10492392  0.52260932  0.75771247     0.18300
N1936       N  0.10579914  0.54814464  0.80550768    -0.80900
H1937       H  0.08131193  0.55658162  0.64167477     0.33900
H1938       H  0.06289254  0.55105595  0.65961695     0.38400
H1939       H  0.11179281  0.53685517  0.81164938     0.33800
H1940       H  0.11500328  0.55722072  0.80444723     0.30500
H1941       H  0.10884218  0.60337469  0.75426411     0.33900
H1942       H  0.10410328  0.58651206  0.72908751     0.30500
H1943       H  0.05801657  0.58416035  0.88704789     0.38400
H1944       H  0.04338792  0.58262994  0.85101415     0.33900
C1945       C  0.09776083  0.49558563  0.38804060    -0.19900
C1946       C  0.10036616  0.48035458  0.40776919     0.36400
C1947       C  0.10013728  0.47997108  0.44809530    -0.25800
C1948       C  0.09745793  0.49450408  0.46914559     0.02800
C1949       C  0.09503546  0.50972262  0.44949228     0.27600
C1950       C  0.09530307  0.51011802  0.40934263    -0.25000
N1951       N  0.10331378  0.46536484  0.38688227    -0.82300
H1952       H  0.10198916  0.46828559  0.46324208     0.13400
C1953       C  0.09635271  0.49367621  0.51161787     0.02800
N1954       N  0.09184872  0.52466772  0.47041081    -0.80900
H1955       H  0.09292788  0.52179685  0.39455091     0.18200
C1956       C  0.10798585  0.50204112  0.53473343    -0.25800
C1957       C  0.10636932  0.50285470  0.57473617     0.36300
C1958       C  0.09222718  0.49590010  0.59204419    -0.19800
C1959       C  0.08149521  0.48637144  0.56883976    -0.25000
C1960       C  0.08328580  0.48527760  0.52906152     0.27600
H1961       H  0.11838014  0.50799305  0.52140327     0.13400
N1962       N  0.11925928  0.51037486  0.59764091    -0.82300
H1963       H  0.07126740  0.48011488  0.58116717     0.18300
N1964       N  0.07154307  0.47608160  0.50614612    -0.80900
H1965       H  0.12875505  0.51473229  0.58056274     0.33900
H1966       H  0.12442561  0.50108967  0.61534103     0.38400
H1967       H  0.06269883  0.47051442  0.52328996     0.33800
H1968       H  0.06518198  0.48456268  0.48832880     0.30500
H1969       H  0.09038519  0.53483157  0.45181445     0.33900
H1970       H  0.08055994  0.52316733  0.48389810     0.30500
H1971       H  0.11441018  0.46685141  0.37261174     0.38400
H1972       H  0.10500153  0.45525968  0.40556923     0.33900
C1973       C  0.09317856  0.46404821  0.26636724    -0.19900
C1974       C  0.10685098  0.45642428  0.24929581     0.36400
C1975       C  0.10463539  0.44179438  0.22795833    -0.25800
C1976       C  0.08880242  0.43505314  0.22192812     0.02800
C1977       C  0.07507633  0.44279619  0.23855025     0.27600
C1978       C  0.07748475  0.45686628  0.26156752    -0.25000
N1979       N  0.12299170  0.46351884  0.25362439    -0.82300
H1980       H  0.11523617  0.43586830  0.21540954     0.13400
C1981       C  0.08645715  0.41967627  0.19905427     0.02800
N1982       N  0.05868103  0.43652292  0.23119453    -0.80900
H1983       H  0.06690346  0.46269859  0.27429676     0.18200
C1984       C  0.08080159  0.40548235  0.21788278    -0.25800
C1985       C  0.07544900  0.39144154  0.19769189     0.36300
C1986       C  0.07596491  0.39110756  0.15708939    -0.19800
C1987       C  0.08292928  0.40507367  0.13866441    -0.25000
C1988       C  0.08785877  0.41934455  0.15885722     0.27600
H1989       H  0.07974514  0.40560094  0.24867545     0.13400
N1990       N  0.06885416  0.37772682  0.21867356    -0.82300
H1991       H  0.08354595  0.40570915  0.10794700     0.18300
N1992       N  0.09339319  0.43343881  0.13716888    -0.80900
H1993       H  0.05873245  0.38204134  0.23379070     0.33900
H1994       H  0.07784698  0.37362125  0.23859376     0.38400
H1995       H  0.08353263  0.43734748  0.11933675     0.33800
H1996       H  0.09636575  0.44351932  0.15451103     0.30500
H1997       H  0.04993348  0.44361595  0.24539632     0.33900
H1998       H  0.05603953  0.43802576  0.20195949     0.30500
H1999       H  0.12732625  0.46617186  0.22637826     0.38400
H2000       H  0.13082750  0.45457713  0.26629654     0.33900
C2001       C  0.07939115  0.60047735  0.15755411    -0.19900
C2002       C  0.07374703  0.58408655  0.14931452     0.36400
C2003       C  0.08068172  0.57033136  0.16880699    -0.25800
C2004       C  0.09348745  0.57225505  0.19591621     0.02800
C2005       C  0.10081169  0.58795476  0.20053037     0.27600
C2006       C  0.09407359  0.60175114  0.18040863    -0.25000
N2007       N  0.06025758  0.58133774  0.12287385    -0.82300
H2008       H  0.07539444  0.55812383  0.16416558     0.13400
C2009       C  0.09783599  0.55792224  0.22119058     0.02800
N2010       N  0.11513212  0.58980391  0.22531243    -0.80900
H2011       H  0.10034328  0.61350855  0.18335059     0.18200
C2012       C  0.10638547  0.54423984  0.20686609    -0.25800
C2013       C  0.10786642  0.52921908  0.22788159     0.36300
C2014       C  0.09966224  0.52758820  0.26319946    -0.19800
C2015       C  0.09289204  0.54214779  0.27901509    -0.25000
C2016       C  0.09160489  0.55703882  0.25814573     0.27600
H2017       H  0.11161450  0.54519059  0.17876675     0.13400
N2018       N  0.11779797  0.51600255  0.21335993    -0.82300
H2019       H  0.08717214  0.54155574  0.30664370     0.18300
N2020       N  0.08295881  0.57094091  0.27359146    -0.80900
H2021       H  0.12284814  0.51933861  0.18722501     0.33900
H2022       H  0.12774531  0.51417397  0.23261698     0.38400
H2023       H  0.07092413  0.56718002  0.27949262     0.33800
H2024       H  0.08885136  0.57415351  0.29939975     0.30500
H2025       H  0.11930846  0.60208750  0.22481406     0.33900
H2026       H  0.11157317  0.58741651  0.25327439     0.30500
H2027       H  0.05084843  0.57518824  0.13712708     0.38400
H2028       H  0.06440982  0.57350209  0.10139757     0.33900
C2029       C  0.95647396  0.48625441  0.67788620    -0.19900
C2030       C  0.96628982  0.47969659  0.70814080     0.36400
C2031       C  0.98349493  0.47898947  0.70485341    -0.25800
C2032       C  0.99114411  0.48571306  0.67272005     0.02800
C2033       C  0.98125212  0.49206715  0.64203848     0.27600
C2034       C  0.96395195  0.49197262  0.64471606    -0.25000
N2035       N  0.95889878  0.47466419  0.74308013    -0.82300
H2036       H  0.99098472  0.47408731  0.72849596     0.13400
C2037       C  0.00938589  0.48775392  0.67341373     0.02800
N2038       N  0.98880395  0.49948653  0.60936778    -0.80900
H2039       H  0.95634517  0.49759415  0.62215359     0.18200
C2040       C  0.01869185  0.48169152  0.64328092    -0.25800
C2041       C  0.03568531  0.48500283  0.64120356     0.36300
C2042       C  0.04376244  0.49425164  0.67018629    -0.19800
C2043       C  0.03449985  0.49925550  0.70171365    -0.25000
C2044       C  0.01741864  0.49657586  0.70310511     0.27600
H2045       H  0.01262271  0.47473881  0.62057694     0.13400
N2046       N  0.04439899  0.47936882  0.60886777    -0.82300
H2047       H  0.04051170  0.50562133  0.72534669     0.18300
N2048       N  0.00813076  0.50323195  0.73402292    -0.80900
H2049       H  0.04333442  0.46642434  0.60761786     0.33900
H2050       H  0.03867620  0.48442890  0.58429498     0.38400
H2051       H  0.01590836  0.50935799  0.75358725     0.33800
H2052       H  0.00001099  0.51222815  0.72254339     0.30500
H2053       H  0.97978697  0.50354557  0.58944187     0.33900
H2054       H  0.99512863  0.51008926  0.61866691     0.30500
H2055       H  0.96227121  0.46229909  0.74865250     0.38400
H2056       H  0.96390336  0.48193543  0.76509793     0.33900
C2057       C  0.91339336  0.46093264  0.72303446    -0.19900
C2058       C  0.90017849  0.45551988  0.74574500     0.36400
C2059       C  0.90190221  0.44070235  0.76758783    -0.25800
C2060       C  0.91651050  0.43116555  0.76697252     0.02800
C2061       C  0.92947449  0.43638547  0.74361654     0.27600
C2062       C  0.92763027  0.45090187  0.72150287    -0.25000
N2063       N  0.88506479  0.46496924  0.74634642    -0.82300
H2064       H  0.89185730  0.43657141  0.78514670     0.13400
C2065       C  0.91853874  0.41574295  0.79067543     0.02800
N2066       N  0.94474271  0.42712865  0.74329996    -0.80900
H2067       H  0.93786207  0.45473072  0.70434731     0.18200
C2068       C  0.92245191  0.40087018  0.77250706    -0.25800
C2069       C  0.92783850  0.38680345  0.79322967     0.36300
C2070       C  0.92874573  0.38696187  0.83395417    -0.19800
C2071       C  0.92408513  0.40193974  0.85197959    -0.25000
C2072       C  0.91898736  0.41619004  0.83089073     0.27600
H2073       H  0.92219101  0.40043130  0.74156770     0.13400
N2074       N  0.93288916  0.37245708  0.77241112    -0.82300
H2075       H  0.92552384  0.40317313  0.88252479     0.18300
N2076       N  0.91505019  0.43136111  0.85019660    -0.80900
H2077       H  0.92302131  0.36871555  0.75466850     0.33900
H2078       H  0.94259151  0.37593598  0.75491799     0.38400
H2079       H  0.91584705  0.42965847  0.87981469     0.33800
H2080       H  0.92402023  0.44013499  0.84334180     0.30500
H2081       H  0.95302107  0.43250463  0.72444251     0.33900
H2082       H  0.95024131  0.42788066  0.77059159     0.30500
H2083       H  0.87978498  0.46478943  0.71878373     0.38400
H2084       H  0.87659796  0.45929953  0.76430758     0.33900
C2085       C  0.91345347  0.52328337  0.72983348    -0.19900
C2086       C  0.90475690  0.53806149  0.71908284     0.36400
C2087       C  0.90661922  0.55244612  0.74170566    -0.25800
C2088       C  0.91651482  0.55235819  0.77527122     0.02800
C2089       C  0.92369508  0.53724206  0.78803270     0.27600
C2090       C  0.92160080  0.52290752  0.76597621    -0.25000
N2091       N  0.89378759  0.53853036  0.68624583    -0.82300
H2092       H  0.90043727  0.56388617  0.73293854     0.13400
C2093       C  0.91984348  0.56814019  0.79627511     0.02800
N2094       N  0.93381601  0.53663502  0.82242351    -0.80900
H2095       H  0.92761507  0.51151038  0.77569525     0.18200
C2096       C  0.91725061  0.56878778  0.83559052    -0.25800
C2097       C  0.92258463  0.58230424  0.85781892     0.36300
C2098       C  0.92979887  0.59650873  0.84006726    -0.19800
C2099       C  0.93190252  0.59574238  0.80002035    -0.25000
C2100       C  0.92712692  0.58187854  0.77822108     0.27600
H2101       H  0.91176465  0.55820356  0.84972989     0.13400
N2102       N  0.92165902  0.58061031  0.89840019    -0.82300
H2103       H  0.93766739  0.60610979  0.78567518     0.18300
N2104       N  0.93015087  0.58152800  0.73795798    -0.80900
H2105       H  0.92862725  0.57019612  0.90704796     0.33900
H2106       H  0.90933992  0.57842406  0.90520903     0.38400
H2107       H  0.93546111  0.59267847  0.72897701     0.33800
H2108       H  0.93886650  0.57216522  0.73333955     0.30500
H2109       H  0.93813795  0.52455366  0.82789818     0.33900
H2110       H  0.94424191  0.54397042  0.81794644     0.30500
H2111       H  0.88411156  0.53030978  0.69146200     0.38400
H2112       H  0.88845397  0.55032594  0.68259684     0.33900
C2113       C  0.96669071  0.48902853  0.32277580    -0.19900
C2114       C  0.97647543  0.47530202  0.33496486     0.36400
C2115       C  0.99369136  0.47683209  0.33743420    -0.25800
C2116       C  0.00129774  0.49186662  0.32818350     0.02800
C2117       C  0.99148292  0.50595683  0.31841002     0.27600
C2118       C  0.97431404  0.50425195  0.31538477    -0.25000
N2119       N  0.96899239  0.45975322  0.34453916    -0.82300
H2120       H  0.00119088  0.46604434  0.34508336     0.13400
C2121       C  0.01931164  0.49187147  0.32349227     0.02800
N2122       N  0.99848738  0.52197816  0.31025018    -0.80900
H2123       H  0.96704598  0.51472796  0.30537888     0.18200
C2124       C  0.02521373  0.49298436  0.28636602    -0.25800
C2125       C  0.04217823  0.49378418  0.27998361     0.36300
C2126       C  0.05338227  0.49343807  0.31152481    -0.19800
C2127       C  0.04753161  0.49144775  0.34862160    -0.25000
C2128       C  0.03045760  0.49079386  0.35496894     0.27600
H2129       H  0.01648328  0.49348498  0.26235959     0.13400
N2130       N  0.04807437  0.49521627  0.24170176    -0.82300
H2131       H  0.05624919  0.49115798  0.37266185     0.18300
N2132       N  0.02436823  0.48942789  0.39304353    -0.80900
H2133       H  0.03818413  0.49550225  0.22188053     0.33900
H2134       H  0.05493152  0.48451942  0.23599214     0.38400
H2135       H  0.03420955  0.48877468  0.41296736     0.33800
H2136       H  0.01786038  0.50036514  0.39871041     0.30500
H2137       H  0.99376717  0.53039732  0.32985458     0.33900
H2138       H  0.01128670  0.52199729  0.31483383     0.30500
H2139       H  0.97379071  0.45060929  0.32680800     0.38400
H2140       H  0.97246205  0.45673810  0.37271426     0.33900
C2141       C  0.91379210  0.49247380  0.59938185    -0.19900
C2142       C  0.90154090  0.50058258  0.57621806     0.36400
C2143       C  0.90245512  0.50018607  0.53603966    -0.25800
C2144       C  0.91495892  0.49120501  0.51797064     0.02800
C2145       C  0.92655729  0.48220585  0.54104830     0.27600
C2146       C  0.92609907  0.48332078  0.58099389    -0.25000
N2147       N  0.88796827  0.50903576  0.59310059    -0.82300
H2148       H  0.89340820  0.50712684  0.51895996     0.13400
C2149       C  0.91646219  0.49175657  0.47530221     0.02800
N2150       N  0.93886244  0.47190889  0.52382529    -0.80900
H2151       H  0.93578467  0.47713277  0.59750785     0.18200
C2152       C  0.93211180  0.49447375  0.46018807    -0.25800
C2153       C  0.93497724  0.49297980  0.42125516     0.36300
C2154       C  0.92153727  0.49039922  0.39502904    -0.19800
C2155       C  0.90562606  0.48848747  0.40989294    -0.25000
C2156       C  0.90300117  0.48873202  0.44968444     0.27600
H2157       H  0.94257347  0.49698593  0.47920815     0.13400
N2158       N  0.95191580  0.49229880  0.41051083    -0.82300
H2159       H  0.89525476  0.48628592  0.39040907     0.18300
N2160       N  0.88685362  0.48541662  0.46405780    -0.80900
H2161       H  0.95497841  0.50278386  0.39467422     0.33900
H2162       H  0.95384003  0.48142200  0.39515411     0.38400
H2163       H  0.87835392  0.48341877  0.44157336     0.33800
H2164       H  0.88760555  0.47431258  0.47974933     0.30500
H2165       H  0.94653582  0.46622313  0.54461946     0.33900
H2166       H  0.93267350  0.46235587  0.50938928     0.30500
H2167       H  0.88807032  0.52143597  0.58387801     0.38400
H2168       H  0.87699819  0.50364099  0.58287584     0.33900
C2169       C  0.91826007  0.45951279  0.26558466    -0.19900
C2170       C  0.92444313  0.45802462  0.22814083     0.36400
C2171       C  0.92360422  0.44277403  0.20888601    -0.25800
C2172       C  0.91639941  0.42874927  0.22551036     0.02800
C2173       C  0.90872900  0.43049532  0.26100317     0.27600
C2174       C  0.90969416  0.44576713  0.28059471    -0.25000
N2175       N  0.93256481  0.47174113  0.21034383    -0.82300
H2176       H  0.92945134  0.44166873  0.18151671     0.13400
C2177       C  0.91889166  0.41206346  0.20769244     0.02800
N2178       N  0.90042080  0.41653681  0.27759267    -0.80900
H2179       H  0.90432067  0.44636843  0.30833987     0.18200
C2180       C  0.92689834  0.39960208  0.22944977    -0.25800
C2181       C  0.93264219  0.38490437  0.21277031     0.36300
C2182       C  0.93138976  0.38264856  0.17244231    -0.19800
C2183       C  0.92084389  0.39402374  0.15224004    -0.25000
C2184       C  0.91492609  0.40870738  0.16892271     0.27600
H2185       H  0.92952490  0.40160580  0.25956039     0.13400
N2186       N  0.94062332  0.37276440  0.23699589    -0.82300
H2187       H  0.91705588  0.39184404  0.12295458     0.18300
N2188       N  0.90498762  0.41985459  0.14550125    -0.80900
H2189       H  0.95049794  0.37844013  0.25159543     0.33900
H2190       H  0.93214370  0.36881565  0.25716863     0.38400
H2191       H  0.89457655  0.41327553  0.13593160     0.33800
H2192       H  0.90041426  0.42969748  0.16140513     0.30500
H2193       H  0.89552046  0.41970939  0.30389903     0.33900
H2194       H  0.89039249  0.41359403  0.25948373     0.30500
H2195       H  0.94463795  0.46809642  0.20434881     0.38400
H2196       H  0.92634164  0.47437556  0.18442598     0.33900
C2197       C  0.92518275  0.52280833  0.27777167    -0.19900
C2198       C  0.91354918  0.52853529  0.24939895     0.36400
C2199       C  0.91601711  0.54395145  0.23092208    -0.25800
C2200       C  0.92921941  0.55426976  0.24153027     0.02800
C2201       C  0.93967086  0.54962571  0.27241465     0.27600
C2202       C  0.93747497  0.53412245  0.29031127    -0.25000
N2203       N  0.89901425  0.51904478  0.24006003    -0.82300
H2204       H  0.90758180  0.54798438  0.20811407     0.13400
C2205       C  0.93224278  0.56977641  0.21964743     0.02800
N2206       N  0.95266008  0.56060251  0.28513611    -0.80900
H2207       H  0.94587011  0.53103300  0.31351275     0.18200
C2208       C  0.92663765  0.58496523  0.23337035    -0.25800
C2209       C  0.92941201  0.59999616  0.21397478     0.36300
C2210       C  0.93804080  0.59999269  0.17839857    -0.19800
C2211       C  0.94448878  0.58441747  0.16678798    -0.25000
C2212       C  0.94146256  0.56948370  0.18635452     0.27600
H2213       H  0.92008615  0.58516917  0.25998749     0.13400
N2214       N  0.92396055  0.61456374  0.23340964    -0.82300
H2215       H  0.95170772  0.58382835  0.14123168     0.18300
N2216       N  0.94771589  0.55395755  0.17245301    -0.80900
H2217       H  0.93322696  0.62343416  0.23635107     0.33900
H2218       H  0.91308362  0.61926753  0.22105014     0.38400
H2219       H  0.95407833  0.55579457  0.14717166     0.33800
H2220       H  0.95636758  0.54938847  0.19265495     0.30500
H2221       H  0.95921000  0.55546997  0.30854634     0.33900
H2222       H  0.96107499  0.56168562  0.26311124     0.30500
H2223       H  0.89190767  0.51844472  0.26453769     0.38400
H2224       H  0.89175438  0.52507045  0.21899154     0.33900
C2225       C  0.47145486  0.08850640  0.71737375    -0.19900
C2226       C  0.46149507  0.07412448  0.71385153     0.36400
C2227       C  0.44677904  0.07287550  0.73402244    -0.25800
C2228       C  0.44178146  0.08548563  0.75851409     0.02800
C2229       C  0.45123085  0.10010157  0.76146152     0.27600
C2230       C  0.46587889  0.10154833  0.74061052    -0.25000
N2231       N  0.46664073  0.06021830  0.69179633    -0.82300
H2232       H  0.43957430  0.06156552  0.73195027     0.13400
C2233       C  0.42755104  0.08225727  0.78350127     0.02800
N2234       N  0.44625005  0.11309212  0.78671877    -0.80900
H2235       H  0.47322789  0.11271666  0.74345196     0.18200
C2236       C  0.43053816  0.07299540  0.81683137    -0.25800
C2237       C  0.41765670  0.06704571  0.83903934     0.36300
C2238       C  0.40076961  0.07158868  0.82997200    -0.19800
C2239       C  0.39810565  0.08081295  0.79550393    -0.25000
C2240       C  0.41108065  0.08607472  0.77244595     0.27600
H2241       H  0.44313661  0.06933065  0.82437918     0.13400
N2242       N  0.42246320  0.05532376  0.86834079    -0.82300
H2243       H  0.38577826  0.08359961  0.78475912     0.18300
N2244       N  0.40694944  0.09500542  0.73772569    -0.80900
H2245       H  0.41849129  0.04350701  0.86071264     0.33900
H2246       H  0.41804865  0.05868219  0.89488058     0.38400
H2247       H  0.40032110  0.08693681  0.71981065     0.33800
H2248       H  0.41747476  0.09853572  0.72314255     0.30500
H2249       H  0.45466020  0.12292329  0.78613934     0.33900
H2250       H  0.43493323  0.11781783  0.77627933     0.30500
H2251       H  0.46750741  0.04980019  0.70979322     0.38400
H2252       H  0.45746778  0.05791201  0.67095709     0.33900
C2253       C  0.60653111  0.07620540  0.84669921    -0.19900
C2254       C  0.60585677  0.07448673  0.80579117     0.36400
C2255       C  0.59254751  0.08122940  0.78419115    -0.25800
C2256       C  0.57950321  0.08964079  0.80126725     0.02800
C2257       C  0.58041603  0.09230904  0.84104544     0.27600
C2258       C  0.59327507  0.08506477  0.86294628    -0.25000
N2259       N  0.61763274  0.06496620  0.78494664    -0.82300
H2260       H  0.59183135  0.07878798  0.75379911     0.13400
C2261       C  0.56380499  0.09249076  0.77873468     0.02800
N2262       N  0.56822294  0.10193145  0.86057209    -0.80900
H2263       H  0.59212638  0.08619427  0.89330254     0.18200
C2264       C  0.54932505  0.08544704  0.79239083    -0.25800
C2265       C  0.53434626  0.08648153  0.77198000     0.36300
C2266       C  0.53360246  0.09397364  0.73478896    -0.19800
C2267       C  0.54814212  0.10172045  0.72189159    -0.25000
C2268       C  0.56314864  0.10109657  0.74352612     0.27600
H2269       H  0.54967307  0.07879439  0.81944879     0.13400
N2270       N  0.52032701  0.07931623  0.79009535    -0.82300
H2271       H  0.54829341  0.10768178  0.69427434     0.18300
N2272       N  0.57781521  0.10879809  0.72944592    -0.80900
H2273       H  0.51196420  0.08865880  0.79698785     0.33900
H2274       H  0.51466615  0.07044880  0.77273111     0.38400
H2275       H  0.57536314  0.11454442  0.70301695     0.33800
H2276       H  0.58119218  0.11822766  0.74846041     0.30500
H2277       H  0.57446698  0.11142031  0.87512485     0.33900
H2278       H  0.56021423  0.10807573  0.84128991     0.30500
H2279       H  0.62971353  0.06846817  0.79180028     0.38400
H2280       H  0.61607943  0.05230066  0.79020154     0.33900
C2281       C  0.49470561  0.09633143  0.39912813    -0.19900
C2282       C  0.50781210  0.10535506  0.41587986     0.36400
C2283       C  0.50927702  0.10652162  0.45588999    -0.25800
C2284       C  0.49778990  0.09878846  0.47958758     0.02800
C2285       C  0.48429935  0.09019269  0.46271316     0.27600
C2286       C  0.48287082  0.08912010  0.42265699    -0.25000
N2287       N  0.51953904  0.11351349  0.39236540    -0.82300
H2288       H  0.51955489  0.11331237  0.46855698     0.13400
C2289       C  0.50051406  0.09884291  0.52187667     0.02800
N2290       N  0.47235399  0.08222564  0.48633404    -0.80900
H2291       H  0.47274275  0.08220176  0.40969074     0.18200
C2292       C  0.48847724  0.10571519  0.54542004    -0.25800
C2293       C  0.49000231  0.10452489  0.58555923     0.36300
C2294       C  0.50388437  0.09637311  0.60236867    -0.19800
C2295       C  0.51624894  0.09016639  0.57891662    -0.25000
C2296       C  0.51467475  0.09122078  0.53886970     0.27600
H2297       H  0.47773064  0.11177474  0.53235536     0.13400
N2298       N  0.47773339  0.11188475  0.60923103    -0.82300
H2299       H  0.52687221  0.08386868  0.59194340     0.18300
N2300       N  0.52715215  0.08411986  0.51535848    -0.80900
H2301       H  0.46873002  0.11805867  0.59241368     0.33900
H2302       H  0.47164168  0.10229473  0.62328535     0.38400
H2303       H  0.53679172  0.07905328  0.53224965     0.33800
H2304       H  0.52177190  0.07423953  0.50038083     0.30500
H2305       H  0.46317925  0.07650880  0.46950320     0.33900
H2306       H  0.47845590  0.07273990  0.50173520     0.30500
H2307       H  0.51908203  0.12624019  0.39820338     0.38400
H2308       H  0.53131588  0.10918710  0.40055736     0.33900
C2309       C  0.39153025  0.07311976  0.16159614    -0.19900
C2310       C  0.40327527  0.06271444  0.18154248     0.36400
C2311       C  0.41583238  0.06980260  0.20426418    -0.25800
C2312       C  0.41801747  0.08700428  0.20640999     0.02800
C2313       C  0.40691694  0.09759212  0.18611410     0.27600
C2314       C  0.39388651  0.09057959  0.16453052    -0.25000
N2315       N  0.40365765  0.04504899  0.17710253    -0.82300
H2316       H  0.42466911  0.06163029  0.21890888     0.13400
C2317       C  0.43328676  0.09283524  0.22633998     0.02800
N2318       N  0.40882541  0.11535760  0.18519724    -0.80900
H2319       H  0.38555880  0.09894623  0.14896330     0.18200
C2320       C  0.44831959  0.08868924  0.21011912    -0.25800
C2321       C  0.46310423  0.08900862  0.23159209     0.36300
C2322       C  0.46334192  0.09482949  0.26983022    -0.19800
C2323       C  0.44823958  0.10029753  0.28496965    -0.25000
C2324       C  0.43318636  0.09903688  0.26382818     0.27600
H2325       H  0.44836456  0.08356627  0.18156185     0.13400
N2326       N  0.47759630  0.08195483  0.21530680    -0.82300
H2327       H  0.44771759  0.10422293  0.31427625     0.18300
N2328       N  0.41771630  0.10271478  0.28130923    -0.80900
H2329       H  0.48004854  0.08848937  0.19018568     0.33900
H2330       H  0.47508850  0.06959868  0.20814753     0.38400
H2331       H  0.41968362  0.10644857  0.30958408     0.33800
H2332       H  0.41237473  0.11287481  0.26681245     0.30500
H2333       H  0.39855838  0.12058218  0.19822928     0.33900
H2334       H  0.41927902  0.11913832  0.20084795     0.30500
H2335       H  0.40278008  0.03953057  0.20410770     0.38400
H2336       H  0.41505797  0.04167925  0.16596816     0.33900
C2337       C  0.59790427  0.06216861  0.18243650    -0.19900
C2338       C  0.58494019  0.05162534  0.19555790     0.36400
C2339       C  0.57159362  0.05840030  0.21501178    -0.25800
C2340       C  0.56987154  0.07548077  0.22036818     0.02800
C2341       C  0.58192695  0.08626865  0.20568194     0.27600
C2342       C  0.59560134  0.07952969  0.18705449    -0.25000
N2343       N  0.58422670  0.03422693  0.18731966    -0.82300
H2344       H  0.56201040  0.05014433  0.22491847     0.13400
C2345       C  0.55461567  0.08135919  0.23894070     0.02800
N2346       N  0.58069620  0.10405188  0.20870704    -0.80900
H2347       H  0.60473832  0.08803462  0.17616695     0.18200
C2348       C  0.55514904  0.08589738  0.27754405    -0.25800
C2349       C  0.54051513  0.08937310  0.29704943     0.36300
C2350       C  0.52500784  0.08823800  0.27783932    -0.19800
C2351       C  0.52466505  0.08395129  0.23883269    -0.25000
C2352       C  0.53924715  0.08063267  0.21925222     0.27600
H2353       H  0.56695854  0.08637756  0.29283456     0.13400
N2354       N  0.54153413  0.09414435  0.33625821    -0.82300
H2355       H  0.51293056  0.08261360  0.22363689     0.18300
N2356       N  0.53852083  0.07603753  0.17964213    -0.80900
H2357       H  0.54884828  0.10480573  0.33826014     0.33900
H2358       H  0.54755003  0.08461628  0.35170954     0.38400
H2359       H  0.52627148  0.07589030  0.16932077     0.33800
H2360       H  0.54456308  0.08528748  0.16425374     0.30500
H2361       H  0.57953350  0.10892187  0.18099143     0.33900
H2362       H  0.57008398  0.10765242  0.22286477     0.30500
H2363       H  0.58363629  0.02771114  0.21322110     0.38400
H2364       H  0.57329022  0.03186058  0.17178761     0.33900
C2365       C  0.49443739  0.96184148  0.65106194    -0.19900
C2366       C  0.48172079  0.97238369  0.63663145     0.36400
C2367       C  0.48436972  0.98958137  0.63430428    -0.25800
C2368       C  0.49958528  0.99637558  0.64592906     0.02800
C2369       C  0.51282198  0.98571244  0.65678482     0.27600
C2370       C  0.51011803  0.96849228  0.65924728    -0.25000
N2371       N  0.46600932  0.96568953  0.62504660    -0.82300
H2372       H  0.47422916  0.99771891  0.62549445     0.13400
C2373       C  0.50071588  0.01448175  0.65274522     0.02800
N2374       N  0.52871360  0.99255499  0.66693902    -0.80900
H2375       H  0.51997977  0.96040186  0.66988205     0.18200
C2376       C  0.50275826  0.01976203  0.69055713    -0.25800
C2377       C  0.50371554  0.03667254  0.69939145     0.36300
C2378       C  0.50277968  0.04861734  0.66962789    -0.19800
C2379       C  0.50018771  0.04340688  0.63179535    -0.25000
C2380       C  0.49924306  0.02635266  0.62299800     0.27600
H2381       H  0.50348656  0.01057500  0.71335954     0.13400
N2382       N  0.50550338  0.04177185  0.73853798    -0.82300
H2383       H  0.49945315  0.05261729  0.60905709     0.18300
N2384       N  0.49710294  0.02102642  0.58413067    -0.80900
H2385       H  0.50607822  0.03144889  0.75686370     0.33900
H2386       H  0.49486167  0.04843144  0.74533594     0.38400
H2387       H  0.49626492  0.03130311  0.56570070     0.33800
H2388       H  0.50776123  0.01446537  0.57694753     0.30500
H2389       H  0.53707775  0.98308750  0.67466846     0.33900
H2390       H  0.53329225  0.99828673  0.64250706     0.30500
H2391       H  0.46376435  0.96894754  0.59641275     0.38400
H2392       H  0.45690637  0.97133325  0.64125229     0.33900
C2393       C  0.39035972  0.92996052  0.82806054    -0.19900
C2394       C  0.39100516  0.93068308  0.78743362     0.36400
C2395       C  0.40494350  0.92495216  0.76852971    -0.25800
C2396       C  0.41876392  0.91862245  0.78863242     0.02800
C2397       C  0.41815821  0.91713879  0.82887396     0.27600
C2398       C  0.40420706  0.92291710  0.84791515    -0.25000
N2399       N  0.37768313  0.93781264  0.76500031    -0.82300
H2400       H  0.40533103  0.92646003  0.73778077     0.13400
C2401       C  0.43439177  0.91668811  0.76747439     0.02800
N2402       N  0.43149439  0.90995552  0.85149628    -0.80900
H2403       H  0.40487125  0.92253327  0.87871810     0.18200
C2404       C  0.44787629  0.92655143  0.77828540    -0.25800
C2405       C  0.46195997  0.92744098  0.75606917     0.36300
C2406       C  0.46282701  0.91843717  0.72144491    -0.19800
C2407       C  0.44952852  0.90784513  0.71164846    -0.25000
C2408       C  0.43533791  0.90694668  0.73424339     0.27600
H2409       H  0.44720583  0.93425172  0.80347585     0.13400
N2410       N  0.47517112  0.93813655  0.76820239    -0.82300
H2411       H  0.44975294  0.90051961  0.68604620     0.18300
N2412       N  0.42169877  0.89648664  0.72313993    -0.80900
H2413       H  0.47048262  0.95021507  0.77045505     0.33900
H2414       H  0.47931764  0.93423281  0.79536442     0.38400
H2415       H  0.42421198  0.89020478  0.69790291     0.33800
H2416       H  0.42050062  0.88741226  0.74440746     0.30500
H2417       H  0.43699096  0.91947846  0.86747123     0.33900
H2418       H  0.44056664  0.90476495  0.83454150     0.30500
H2419       H  0.38232632  0.94779616  0.74935663     0.38400
H2420       H  0.37341805  0.92886610  0.74562084     0.33900
C2421       C  0.52412277  0.92495428  0.71258947    -0.19900
C2422       C  0.52585546  0.93413435  0.74671516     0.36400
C2423       C  0.54141696  0.93537988  0.76495528    -0.25800
C2424       C  0.55556328  0.92847650  0.74896811     0.02800
C2425       C  0.55403245  0.91987896  0.71401936     0.27600
C2426       C  0.53825386  0.91810653  0.69624292    -0.25000
N2427       N  0.51185918  0.94255958  0.76223590    -0.82300
H2428       H  0.54261343  0.94212935  0.79154811     0.13400
C2429       C  0.57184168  0.93126935  0.76875775     0.02800
N2430       N  0.56848565  0.91321180  0.69655273    -0.80900
H2431       H  0.53695391  0.91136695  0.66967006     0.18200
C2432       C  0.58158492  0.91779787  0.78149762    -0.25800
C2433       C  0.59623273  0.92014854  0.80366301     0.36300
C2434       C  0.60143699  0.93656670  0.81378021    -0.19800
C2435       C  0.59170531  0.94994528  0.79857183    -0.25000
C2436       C  0.57715520  0.94749068  0.77681035     0.27600
H2437       H  0.57746740  0.90530652  0.77501884     0.13400
N2438       N  0.60574700  0.90581934  0.81575508    -0.82300
H2439       H  0.59549565  0.96266428  0.80193175     0.18300
N2440       N  0.56771951  0.96153750  0.76250404    -0.80900
H2441       H  0.60077689  0.89494360  0.80409145     0.33900
H2442       H  0.60488726  0.90458948  0.84530062     0.38400
H2443       H  0.57308778  0.97273288  0.77124636     0.33800
H2444       H  0.56808311  0.96136776  0.73270205     0.30500
H2445       H  0.56524908  0.90727490  0.67099376     0.33900
H2446       H  0.57603918  0.92321994  0.68936229     0.30500
H2447       H  0.50804315  0.95174048  0.74257260     0.38400
H2448       H  0.51520205  0.94871702  0.78744237     0.33900
C2449       C  0.49907442  0.96210212  0.31946195    -0.19900
C2450       C  0.50052992  0.97322217  0.28835320     0.36400
C2451       C  0.50063685  0.99035727  0.29500144    -0.25800
C2452       C  0.49916935  0.99663137  0.33196980     0.02800
C2453       C  0.49691535  0.98556278  0.36286462     0.27600
C2454       C  0.49676048  0.96831814  0.35621340    -0.25000
N2455       N  0.50188141  0.96702653  0.25011924    -0.82300
H2456       H  0.50178298  0.99892032  0.27117765     0.13400
C2457       C  0.49920899  0.01490924  0.33689378     0.02800
N2458       N  0.49513323  0.99187266  0.40081746    -0.80900
H2459       H  0.49547176  0.95971285  0.37988998     0.18200
C2460       C  0.48506899  0.02270871  0.35071036    -0.25800
C2461       C  0.48342323  0.04003565  0.34921842     0.36300
C2462       C  0.49605010  0.04973447  0.33347248    -0.19800
C2463       C  0.51074762  0.04209398  0.32245743    -0.25000
C2464       C  0.51245671  0.02469119  0.32396224     0.27600
H2465       H  0.47491367  0.01529275  0.36093080     0.13400
N2466       N  0.46876217  0.04777220  0.36297752    -0.82300
H2467       H  0.52049238  0.04962088  0.31067419     0.18300
N2468       N  0.52730962  0.01684077  0.31119698    -0.80900
H2469       H  0.45858419  0.04292335  0.34785849     0.33900
H2470       H  0.46766114  0.04451036  0.39175253     0.38400
H2471       H  0.53577518  0.02576419  0.30226300     0.33800
H2472       H  0.53281067  0.01068341  0.33469146     0.30500
H2473       H  0.49358815  0.98210473  0.42025521     0.33900
H2474       H  0.50619897  0.99775623  0.40866450     0.30500
H2475       H  0.49089758  0.96081032  0.24312499     0.38400
H2476       H  0.50286620  0.97682925  0.23054513     0.33900
C2477       C  0.49887779  0.91535265  0.39049318    -0.19900
C2478       C  0.51136207  0.92155258  0.41544222     0.36400
C2479       C  0.51004597  0.91927580  0.45512568    -0.25800
C2480       C  0.49657785  0.91082697  0.47056758     0.02800
C2481       C  0.48430045  0.90426648  0.44547895     0.27600
C2482       C  0.48545595  0.90682188  0.40571793    -0.25000
N2483       N  0.52522292  0.93036016  0.40038714    -0.82300
H2484       H  0.51934987  0.92455192  0.47421580     0.13400
C2485       C  0.49484181  0.91029093  0.51297991     0.02800
N2486       N  0.47074910  0.89499629  0.46052101    -0.80900
H2487       H  0.47596722  0.90198586  0.38647287     0.18200
C2488       C  0.48044484  0.91684265  0.52871434    -0.25800
C2489       C  0.47891984  0.91834023  0.56833469     0.36300
C2490       C  0.49204212  0.91333581  0.59318530    -0.19800
C2491       C  0.50636143  0.90648152  0.57774110    -0.25000
C2492       C  0.50778222  0.90462493  0.53787517     0.27600
H2493       H  0.47052347  0.92144776  0.51005477     0.13400
N2494       N  0.46429616  0.92574096  0.58314240    -0.82300
H2495       H  0.51646624  0.90267031  0.59682373     0.18300
N2496       N  0.52231528  0.89711679  0.52254520    -0.80900
H2497       H  0.46293571  0.93763214  0.57119725     0.33900
H2498       H  0.45414948  0.91862868  0.57413478     0.38400
H2499       H  0.53063275  0.89361613  0.54454279     0.33800
H2500       H  0.51864489  0.88617178  0.50885467     0.30500
H2501       H  0.46281767  0.89101175  0.43842795     0.33900
H2502       H  0.47567279  0.88428017  0.47365679     0.30500
H2503       H  0.52073007  0.94131124  0.38757400     0.38400
H2504       H  0.53338611  0.93394906  0.42242394     0.33900
C2505       C  0.46651866  0.92311721  0.26992729    -0.19900
C2506       C  0.45635515  0.93744151  0.27251751     0.36400
C2507       C  0.44115933  0.93837197  0.25200699    -0.25800
C2508       C  0.43578742  0.92545150  0.22812719     0.02800
C2509       C  0.44578857  0.91100290  0.22555604     0.27600
C2510       C  0.46085122  0.90999680  0.24660876    -0.25000
N2511       N  0.46165971  0.95150489  0.29433358    -0.82300
H2512       H  0.43365425  0.94952055  0.25400982     0.13400
C2513       C  0.41998760  0.92770264  0.20549020     0.02800
N2514       N  0.44139398  0.89734822  0.20108509    -0.80900
H2515       H  0.46835584  0.89888654  0.24407118     0.18200
C2516       C  0.42001554  0.93778282  0.17275082    -0.25800
C2517       C  0.40549762  0.94082516  0.15069417     0.36300
C2518       C  0.39016404  0.93335169  0.16053276    -0.19800
C2519       C  0.39041761  0.92334767  0.19420107    -0.25000
C2520       C  0.40491486  0.92048389  0.21645914     0.27600
H2521       H  0.43145163  0.94360571  0.16444273     0.13400
N2522       N  0.40635579  0.95192961  0.11859029    -0.82300
H2523       H  0.37922580  0.91817011  0.20523034     0.18300
N2524       N  0.40361997  0.91066982  0.25076015    -0.80900
H2525       H  0.41042318  0.96348300  0.12849449     0.33900
H2526       H  0.41521256  0.94734833  0.10010207     0.38400
H2527       H  0.40033938  0.89861925  0.24266092     0.33800
H2528       H  0.41489901  0.90970865  0.26578114     0.30500
H2529       H  0.43952822  0.88695288  0.21850539     0.33900
H2530       H  0.43028166  0.89952895  0.18603122     0.30500
H2531       H  0.46213196  0.96180603  0.27601735     0.38400
H2532       H  0.45276989  0.95390653  0.31475863     0.33900
C2533       C  0.52843221  0.91462509  0.26141699    -0.19900
C2534       C  0.54154534  0.90327256  0.27003528     0.36400
C2535       C  0.55566186  0.90301706  0.24716460    -0.25800
C2536       C  0.55714008  0.91379791  0.21571503     0.02800
C2537       C  0.54366638  0.92424011  0.20543253     0.27600
C2538       C  0.52937451  0.92399569  0.22728134    -0.25000
N2539       N  0.54077602  0.89177659  0.30121304    -0.82300
H2540       H  0.56571940  0.89453806  0.25454331     0.13400
C2541       C  0.57299855  0.91483076  0.19474126     0.02800
N2542       N  0.54483446  0.93573622  0.17394985    -0.80900
H2543       H  0.51928711  0.93234364  0.21927196     0.18200
C2544       C  0.57269173  0.91374027  0.15484317    -0.25800
C2545       C  0.58646090  0.91802223  0.13315663     0.36300
C2546       C  0.60177056  0.92242223  0.15169287    -0.19800
C2547       C  0.60206733  0.92233850  0.19224049    -0.25000
C2548       C  0.58799074  0.91889881  0.21368590     0.27600
H2549       H  0.56119998  0.91060368  0.14003440     0.13400
N2550       N  0.58408094  0.91896535  0.09258151    -0.82300
H2551       H  0.61325874  0.92607615  0.20741434     0.18300
N2552       N  0.58869988  0.92040291  0.25458817    -0.80900
H2553       H  0.57466627  0.92758732  0.08632058     0.33900
H2554       H  0.58016536  0.90732783  0.08283408     0.38400
H2555       H  0.60065824  0.92341897  0.26417998     0.33800
H2556       H  0.58108675  0.93037809  0.26183251     0.30500
H2557       H  0.53386624  0.94254572  0.17011439     0.33900
H2558       H  0.55408754  0.94431482  0.18099986     0.30500
H2559       H  0.55096467  0.89385982  0.31955026     0.38400
H2560       H  0.54179613  0.87974448  0.29041654     0.33900
loop_ 
_geom_bond_atom_site_label_1 
_geom_bond_atom_site_label_2 
_geom_bond_distance 
_geom_bond_site_symmetry_2 
_ccdc_geom_bond_type 
C1            C2   1.543       .  S
C1            C7   1.545       .  S
C1            C5   1.536       .  S
C1         C2533   1.547       .  S
C2            H9   1.086       .  S
C2            C3   1.374       .  D
C3            C4   1.550       .  S
C3         C2505   1.510       .  S
C4            C8   1.544       .  S
C4            C6   1.534       .  S
C4           H10   1.109       .  S
C5           H11   1.087       .  S
C5            C6   1.358       .  D
C6         C2449   1.478       .  S
C7           H12   1.078       .  S
C7            C8   1.369       .  D
C8         C2477   1.489       .  S
C13          C14   1.534       .  S
C13          C19   1.546       .  S
C13          C17   1.540       .  S
C13        C2406   1.539       .  S
C14          H21   1.087       .  S
C14          C15   1.365       .  D
C15          C16   1.541       .  S
C15        C2421   1.489       .  S
C16          C20   1.543       .  S
C16          C18   1.534       .  S
C16          H22   1.111       .  S
C17          H23   1.086       .  S
C17          C18   1.363       .  D
C18        C2365   1.482       .  S
C19          H24   1.082       .  S
C19          C20   1.373       .  D
C20        C2490   1.488       .  S
C25          C26   1.538       .  S
C25          C31   1.542       .  S
C25          C29   1.534       .  S
C25        C2322   1.536       .  S
C26          H33   1.085       .  S
C26          C27   1.369       .  D
C27          C28   1.549       .  S
C27        C2350   1.502       .  S
C28          C32   1.548       .  S
C28          C30   1.532       .  S
C28          H34   1.109       .  S
C29          H35   1.087       .  S
C29          C30   1.358       .  D
C30        C2462   1.477       .  S
C31          H36   1.083       .  S
C31          C32   1.371       .  D
C32        C2281   1.485       .  S
C37          C38   1.542       .  S
C37          C43   1.549       .  S
C37          C41   1.534       .  S
C37        C2266   1.544       .  S
C38          H45   1.082       .  S
C38          C39   1.371       .  D
C39          C40   1.547       .  S
C39        C2225   1.504       .  S
C40          C44   1.543       .  S
C40          C42   1.533       .  S
C40          H46   1.109       .  S
C41          H47   1.087       .  S
C41          C42   1.357       .  D
C42        C2378   1.481       .  S
C43          H48   1.082       .  S
C43          C44   1.371       .  D
C44        C2294   1.486       .  S
C49          C50   1.541       .  S
C49          C55   1.554       .  S
C49          C53   1.530       .  S
C49        C2169   1.547       .  S
C50          H57   1.081       .  S
C50          C51   1.378       .  D
C51          C52   1.552       .  S
C51        C2197   1.520       .  S
C52          C56   1.539       .  S
C52          C54   1.538       .  S
C52          H58   1.099       .  S
C53          H59   1.087       .  S
C53          C54   1.356       .  D
C54        C2113   1.480       .  S
C55          H60   1.081       .  S
C55          C56   1.373       .  D
C56        C2154   1.504       .  S
C61          C62   1.541       .  S
C61          C67   1.549       .  S
C61          C65   1.539       .  S
C61        C2085   1.544       .  S
C62          H69   1.085       .  S
C62          C63   1.369       .  D
C63          C64   1.545       .  S
C63        C2057   1.502       .  S
C64          C68   1.550       .  S
C64          C66   1.530       .  S
C64          H70   1.108       .  S
C65          H71   1.087       .  S
C65          C66   1.354       .  D
C66        C2029   1.470       .  S
C67          H72   1.076       .  S
C67          C68   1.376       .  D
C68        C2141   1.511       .  S
C73          C74   1.547       .  S
C73          C79   1.540       .  S
C73          C77   1.538       .  S
C73        C2014   1.545       .  S
C74          H81   1.078       .  S
C74          C75   1.370       .  D
C75          C76   1.544       .  S
C75        C1973   1.491       .  S
C76          C80   1.545       .  S
C76          C78   1.528       .  S
C76          H82   1.110       .  S
C77          H83   1.087       .  S
C77          C78   1.357       .  D
C78        C2126   1.472       .  S
C79          H84   1.086       .  S
C79          C80   1.372       .  D
C80        C1945   1.499       .  S
C85          C86   1.529       .  S
C85          C91   1.546       .  S
C85          C89   1.531       .  S
C85        C1930   1.540       .  S
C86          H93   1.083       .  S
C86          C87   1.373       .  D
C87          C88   1.563       .  S
C87        C1958   1.517       .  S
C88          C92   1.543       .  S
C88          C90   1.548       .  S
C88          H94   1.106       .  S
C89          H95   1.086       .  S
C89          C90   1.364       .  D
C90        C2042   1.502       .  S
C91          H96   1.080       .  S
C91          C92   1.368       .  D
C92        C1889   1.497       .  S
C97        C1805   1.577       .  S
C97        C1846   1.584       .  S
C97        C1874   1.576       .  S
C97        C2182   1.587       .  S
C98        C1749   1.577       .  S
C98        C1777   1.568       .  S
C98        C1833   1.574       .  S
C98        C2070   1.567       .  S
C99        C1706   1.579       .  S
C99        C1721   1.570       .  S
C99        C1818   1.585       .  S
C99        C1986   1.562       .  S
C100       C1665   1.568       .  S
C100       C1693   1.572       .  S
C100       C1762   1.573       .  S
C100       C1902   1.571       .  S
C101       C1581   1.578       .  S
C101       C1609   1.587       .  S
C101       C1650   1.576       .  S
C101       C2518   1.584       .  S
C102       C1525   1.569       .  S
C102       C1566   1.565       .  S
C102       C1622   1.580       .  S
C102       C2393   1.570       .  S
C103       C1469   1.567       .  S
C103       C1497   1.570       .  S
C103       C1594   1.576       .  S
C103       C2309   1.570       .  S
C104       C1441   1.586       .  S
C104       C1482   1.570       .  S
C104       C1538   1.575       .  S
C104       C2238   1.582       .  S
C105       C1357   1.574       .  S
C105       C1385   1.580       .  S
C105       C1426   1.565       .  S
C105       C2546   1.574       .  S
C106       C1301   1.581       .  S
C106       C1329   1.581       .  S
C106       C1398   1.580       .  S
C106       C2434   1.577       .  S
C107       C1258   1.572       .  S
C107       C1273   1.569       .  S
C107       C1370   1.565       .  S
C107       C2337   1.571       .  S
C108       C1217   1.576       .  S
C108       C1245   1.577       .  S
C108       C1314   1.577       .  S
C108       C2253   1.578       .  S
O109        C112   1.264       .  A
O109       Cd114   2.473       .  S
C110        O119   1.266       .  A
C110        O115   1.266       .  A
C110       C1161   1.489       .  S
O111        C117   1.263       .  A
O111       Cd114   2.492       .  S
C112        O120   1.269       .  A
C112       C1861   1.496       .  S
C113        O118   1.265       .  A
C113        O116   1.265       .  A
C113       C1133   1.488       .  S
Cd114       O121   2.506       .  S
Cd114       O120   2.506       .  S
Cd114       O119   2.465       .  S
Cd114       O115   2.463       .  S
Cd114       O118   2.472       .  S
Cd114       O116   2.478       .  S
C117        O121   1.266       .  A
C117       C1202   1.497       .  S
O122        C125   1.264       .  A
O122       Cd127   2.492       .  S
C123        O132   1.266       .  A
C123        O128   1.266       .  A
C123       C1105   1.487       .  S
O124        C130   1.268       .  A
O124       Cd127   2.473       .  S
C125        O133   1.263       .  A
C125       C1286   1.478       .  S
C126        O131   1.262       .  A
C126        O129   1.265       .  A
C126       C1189   1.486       .  S
Cd127       O134   2.452       .  S
Cd127       O133   2.453       .  S
Cd127       O132   2.480       .  S
Cd127       O128   2.452       .  S
Cd127       O131   2.470       .  S
Cd127       O129   2.505       .  S
C130        O134   1.267       .  A
C130       C1077   1.488       .  S
O135        C138   1.266       .  A
O135       Cd140   2.501       .  S
C136        O145   1.267       .  A
C136        O141   1.267       .  A
C136       C1174   1.491       .  S
O137        C143   1.267       .  A
O137       Cd140   2.534       .  S
C138        O146   1.263       .  A
C138       C1790   1.488       .  S
C139        O144   1.267       .  A
C139        O142   1.264       .  A
C139       C1049   1.497       .  S
Cd140       O147   2.457       .  S
Cd140       O146   2.460       .  S
Cd140       O145   2.476       .  S
Cd140       O141   2.467       .  S
Cd140       O144   2.500       .  S
Cd140       O142   2.489       .  S
C143        O147   1.264       .  A
C143       C1021   1.496       .  S
O148        C151   1.266       .  A
O148       Cd153   2.487       .  S
C149        O158   1.267       .  A
C149        O154   1.266       .  A
C149       C1230   1.485       .  S
O150        C156   1.265       .  A
O150       Cd153   2.469       .  S
C151        O159   1.263       .  A
C151       C1118   1.487       .  S
C152        O157   1.264       .  A
C152        O155   1.265       .  A
C152       C1062   1.495       .  S
Cd153       O160   2.490       .  S
Cd153       O159   2.458       .  S
Cd153       O158   2.490       .  S
Cd153       O154   2.454       .  S
Cd153       O157   2.481       .  S
Cd153       O155   2.505       .  S
C156        O160   1.266       .  A
C156        C993   1.491       .  S
O161        C164   1.267       .  A
O161       Cd166   2.455       .  S
C162        O171   1.263       .  A
C162        O167   1.266       .  A
C162        C937   1.487       .  S
O163        C169   1.264       .  A
O163       Cd166   2.478       .  S
C164        O172   1.267       .  A
C164        C894   1.492       .  S
C165        O170   1.264       .  A
C165        O168   1.266       .  A
C165        C909   1.490       .  S
Cd166       O173   2.507       .  S
Cd166       O172   2.484       .  S
Cd166       O171   2.461       .  S
Cd166       O167   2.497       .  S
Cd166       O170   2.473       .  S
Cd166       O168   2.473       .  S
C169        O173   1.265       .  A
C169        C965   1.492       .  S
O174        C177   1.263       .  A
O174       Cd179   2.490       .  S
C175        O184   1.265       .  A
C175        O180   1.267       .  A
C175        C853   1.482       .  S
O176        C182   1.268       .  A
O176       Cd179   2.494       .  S
C177        O185   1.266       .  A
C177       C1342   1.490       .  S
C178        O183   1.263       .  A
C178        O181   1.264       .  A
C178        C978   1.495       .  S
Cd179       O186   2.449       .  S
Cd179       O185   2.496       .  S
Cd179       O184   2.439       .  S
Cd179       O180   2.466       .  S
Cd179       O183   2.492       .  S
Cd179       O181   2.502       .  S
C182        O186   1.264       .  A
C182       C1006   1.490       .  S
O187        C190   1.263       .  A
O187       Cd192   2.452       .  S
C188        O197   1.267       .  A
C188        O193   1.266       .  A
C188        C950   1.491       .  S
O189        C195   1.265       .  A
O189       Cd192   2.466       .  S
C190        O198   1.268       .  A
C190        C782   1.489       .  S
C191        O196   1.264       .  A
C191        O194   1.264       .  A
C191        C825   1.494       .  S
Cd192       O199   2.496       .  S
Cd192       O198   2.504       .  S
Cd192       O197   2.465       .  S
Cd192       O193   2.479       .  S
Cd192       O196   2.504       .  S
Cd192       O194   2.490       .  S
C195        O199   1.266       .  A
C195        C797   1.491       .  S
O200        C203   1.265       .  A
O200       Cd205   2.456       .  S
C201        O210   1.263       .  A
C201        O206   1.265       .  A
C201        C866   1.486       .  S
O202        C208   1.263       .  A
O202       Cd205   2.478       .  S
C203        O211   1.268       .  A
C203       C1413   1.492       .  S
C204        O209   1.266       .  A
C204        O207   1.265       .  A
C204       C1090   1.491       .  S
Cd205       O212   2.492       .  S
Cd205       O211   2.489       .  S
Cd205       O210   2.460       .  S
Cd205       O206   2.491       .  S
Cd205       O209   2.476       .  S
Cd205       O207   2.473       .  S
C208        O212   1.265       .  A
C208        C838   1.490       .  S
O213        C216   1.263       .  A
O213       Cd218   2.476       .  S
C214        O223   1.265       .  A
C214        O219   1.266       .  A
C214       C1678   1.482       .  S
O215        C221   1.266       .  A
O215       Cd218   2.498       .  S
C216        O224   1.265       .  A
C216        C713   1.494       .  S
C217        O222   1.267       .  A
C217        O220   1.265       .  A
C217        C741   1.494       .  S
Cd218       O225   2.499       .  S
Cd218       O224   2.502       .  S
Cd218       O223   2.459       .  S
Cd218       O219   2.499       .  S
Cd218       O222   2.482       .  S
Cd218       O220   2.495       .  S
C221        O225   1.266       .  A
C221       C1034   1.497       .  S
O226        C229   1.263       .  A
O226       Cd231   2.468       .  S
C227        O236   1.268       .  A
C227        O232   1.265       .  A
C227        C685   1.494       .  S
O228        C234   1.267       .  A
O228       Cd231   2.509       .  S
C229        O237   1.265       .  A
C229       C1454   1.490       .  S
C230        O235   1.264       .  A
C230        O233   1.264       .  A
C230        C754   1.491       .  S
Cd231       O238   2.454       .  S
Cd231       O237   2.489       .  S
Cd231       O236   2.481       .  S
Cd231       O232   2.472       .  S
Cd231       O235   2.489       .  S
Cd231       O233   2.508       .  S
C234        O238   1.264       .  A
C234        C657   1.493       .  S
O239        C242   1.267       .  A
O239       Cd244   2.512       .  S
C240        O249   1.266       .  A
C240        O245   1.268       .  A
C240        C726   1.489       .  S
O241        C247   1.268       .  A
O241       Cd244   2.519       .  S
C242        O250   1.262       .  A
C242       C1734   1.492       .  S
C243        O248   1.267       .  A
C243        O246   1.264       .  A
C243        C642   1.490       .  S
Cd244       O251   2.426       .  S
Cd244       O250   2.454       .  S
Cd244       O249   2.451       .  S
Cd244       O245   2.475       .  S
Cd244       O248   2.489       .  S
Cd244       O246   2.466       .  S
C247        O251   1.261       .  A
C247       C1146   1.490       .  S
O252        C255   1.264       .  A
O252       Cd257   2.451       .  S
C253        O262   1.262       .  A
C253        O258   1.267       .  A
C253        C698   1.488       .  S
O254        C260   1.264       .  A
O254       Cd257   2.476       .  S
C255        O263   1.266       .  A
C255       C1510   1.483       .  S
C256        O261   1.265       .  A
C256        O259   1.266       .  A
C256        C601   1.487       .  S
Cd257       O264   2.483       .  S
Cd257       O263   2.482       .  S
Cd257       O262   2.444       .  S
Cd257       O258   2.495       .  S
Cd257       O261   2.441       .  S
Cd257       O259   2.484       .  S
C260        O264   1.265       .  A
C260        C629   1.490       .  S
O265        C268   1.266       .  A
O265       Cd270   2.461       .  S
C266        O275   1.263       .  A
C266        O271   1.267       .  A
C266        C545   1.487       .  S
O267        C273   1.264       .  A
O267       Cd270   2.471       .  S
C268        O276   1.267       .  A
C268       C1553   1.489       .  S
C269        O274   1.265       .  A
C269        O272   1.264       .  A
C269        C670   1.489       .  S
Cd270       O277   2.510       .  S
Cd270       O276   2.462       .  S
Cd270       O275   2.447       .  S
Cd270       O271   2.478       .  S
Cd270       O274   2.486       .  S
Cd270       O272   2.465       .  S
C273        O277   1.264       .  A
C273        C573   1.491       .  S
O278        C281   1.262       .  A
O278       Cd283   2.432       .  S
C279        O288   1.266       .  A
C279        O284   1.266       .  A
C279        C517   1.484       .  S
O280        C286   1.268       .  A
O280       Cd283   2.499       .  S
C281        O289   1.267       .  A
C281        C489   1.485       .  S
C282        O287   1.264       .  A
C282        O285   1.265       .  A
C282        C586   1.490       .  S
Cd283       O290   2.436       .  S
Cd283       O289   2.501       .  S
Cd283       O288   2.460       .  S
Cd283       O284   2.445       .  S
Cd283       O287   2.477       .  S
Cd283       O285   2.486       .  S
C286        O290   1.263       .  A
C286        C922   1.489       .  S
O291        C294   1.264       .  A
O291       Cd296   2.453       .  S
C292        O301   1.264       .  A
C292        O297   1.266       .  A
C292        C558   1.488       .  S
O293        C299   1.268       .  A
O293       Cd296   2.500       .  S
C294        O302   1.268       .  A
C294       C1637   1.491       .  S
C295        O300   1.263       .  A
C295        O298   1.267       .  A
C295        C461   1.487       .  S
Cd296       O303   2.434       .  S
Cd296       O302   2.504       .  S
Cd296       O301   2.455       .  S
Cd296       O297   2.482       .  S
Cd296       O300   2.456       .  S
Cd296       O298   2.499       .  S
C299        O303   1.263       .  A
C299        C614   1.489       .  S
O304        C307   1.265       .  A
O304       Cd309   2.459       .  S
C305        O314   1.264       .  A
C305        O310   1.268       .  A
C305        C433   1.489       .  S
O306        C312   1.266       .  A
O306       Cd309   2.467       .  S
C307        O315   1.264       .  A
C307        C530   1.481       .  S
C308        O313   1.267       .  A
C308        O311   1.262       .  A
C308        C474   1.489       .  S
Cd309       O316   2.481       .  S
Cd309       O315   2.455       .  S
Cd309       O314   2.459       .  S
Cd309       O310   2.491       .  S
Cd309       O313   2.510       .  S
Cd309       O311   2.462       .  S
C312        O316   1.266       .  A
C312        C810   1.488       .  S
C317        C377   1.584       .  S
C317        C405   1.575       .  S
C317        C769   1.568       .  S
C317       C2210   1.572       .  S
C318        C349   1.584       .  S
C318        C418   1.579       .  S
C318        C881   1.578       .  S
C318       C2098   1.568       .  S
C319        C321   1.564       .  S
C319        C390   1.570       .  S
C319        C446   1.571       .  S
C319       C2001   1.569       .  S
C320        C334   1.574       .  S
C320        C362   1.572       .  S
C320        C502   1.576       .  S
C320       C1917   1.573       .  S
C321        C322   1.424       .  A
C321        C326   1.418       .  A
C322        C323   1.408       .  A
C322        N327   1.432       .  S
C323        C324   1.399       .  A
C323        H328   1.084       .  S
C324        C329   1.480   1_554  S
C324        C325   1.406       .  A
C325        C326   1.401       .  A
C325        N330   1.441       .  S
C326        H331   1.079       .  S
N327        H347   1.046       .  S
N327        H348   1.045       .  S
C329        C332   1.397       .  A
C329        C336   1.403       .  A
N330        H345   1.046       .  S
N330        H346   1.044   1_554  S
C332        C333   1.411       .  A
C332        H337   1.084       .  S
C333        C334   1.434       .  A
C333        N338   1.437       .  S
C334        C335   1.420       .  A
C335        C336   1.399       .  A
C335        H339   1.082       .  S
C336        N340   1.440       .  S
N338        H341   1.045       .  S
N338        H342   1.043       .  S
N340        H343   1.046       .  S
N340        H344   1.044       .  S
C349        C350   1.430       .  A
C349        C354   1.419       .  A
C350        C351   1.402       .  A
C350        N355   1.433       .  S
C351        C352   1.398       .  A
C351        H356   1.084       .  S
C352        C357   1.485   1_655  S
C352        C353   1.413       .  A
C353        C354   1.403       .  A
C353        N358   1.440       .  S
C354        H359   1.077       .  S
N355        H375   1.046       .  S
N355        H376   1.046       .  S
C357        C360   1.398       .  A
C357        C364   1.406       .  A
N358        H373   1.046       .  S
N358        H374   1.042   1_655  S
C360        C361   1.405       .  A
C360        H365   1.084       .  S
C361        C362   1.427       .  A
C361        N366   1.432       .  S
C362        C363   1.420       .  A
C363        C364   1.404       .  A
C363        H367   1.077       .  S
C364        N368   1.439       .  S
N366        H369   1.046       .  S
N366        H370   1.046       .  S
N368        H371   1.046       .  S
N368        H372   1.046       .  S
C377        C378   1.428       .  A
C377        C382   1.422       .  A
C378        C379   1.410       .  A
C378        N383   1.429       .  S
C379        C380   1.399       .  A
C379        H384   1.084       .  S
C380        C385   1.486   1_655  S
C380        C381   1.407       .  A
C381        C382   1.396       .  A
C381        N386   1.435       .  S
C382        H387   1.080       .  S
N383        H403   1.045       .  S
N383        H404   1.046       .  S
C385        C388   1.400       .  A
C385        C392   1.402       .  A
N386        H401   1.043   1_655  S
N386        H402   1.046   1_655  S
C388        C389   1.410       .  A
C388        H393   1.084       .  S
C389        C390   1.429       .  A
C389        N394   1.432       .  S
C390        C391   1.417       .  A
C391        C392   1.398       .  A
C391        H395   1.079       .  S
C392        N396   1.433       .  S
N394        H397   1.046       .  S
N394        H398   1.045       .  S
N396        H399   1.046       .  S
N396        H400   1.046       .  S
C405        C406   1.430       .  A
C405        C410   1.419       .  A
C406        C407   1.410       .  A
C406        N411   1.431       .  S
C407        C408   1.399       .  A
C407        H412   1.084       .  S
C408        C413   1.481   1_554  S
C408        C409   1.404       .  A
C409        C410   1.400       .  A
C409        N414   1.440       .  S
C410        H415   1.083       .  S
N411        H431   1.046       .  S
N411        H432   1.045       .  S
C413        C416   1.397       .  A
C413        C420   1.401       .  A
N414        H429   1.045       .  S
N414        H430   1.044       .  S
C416        C417   1.413       .  A
C416        H421   1.084       .  S
C417        C418   1.435       .  A
C417        N422   1.438       .  S
C418        C419   1.421       .  A
C419        C420   1.399       .  A
C419        H423   1.071       .  S
C420        N424   1.442       .  S
N422        H425   1.045       .  S
N422        H426   1.042       .  S
N424        H427   1.046       .  S
N424        H428   1.043   1_556  S
C433        C434   1.416       .  A
C433        C438   1.406       .  A
C434        C435   1.406       .  A
C434        N439   1.438       .  S
C435        C436   1.404       .  A
C435        H440   1.084       .  S
C436        C441   1.494       .  S
C436        C437   1.412       .  A
C437        C438   1.409       .  A
C437        N442   1.437       .  S
C438        H443   1.083       .  S
N439        H459   1.045       .  S
N439        H460   1.046       .  S
C441        C444   1.400       .  A
C441        C448   1.414       .  A
N442        H457   1.046       .  S
N442        H458   1.045       .  S
C444        C445   1.405       .  A
C444        H449   1.084       .  S
C445        C446   1.432       .  A
C445        N450   1.432       .  S
C446        C447   1.416       .  A
C447        C448   1.402       .  A
C447        H451   1.083       .  S
C448        N452   1.440       .  S
N450        H453   1.046       .  S
N450        H454   1.046       .  S
N452        H455   1.046       .  S
N452        H456   1.043       .  S
C461        C462   1.417       .  A
C461        C466   1.406       .  A
C462        C463   1.405       .  A
C462        N467   1.438       .  S
C463        C464   1.399       .  A
C463        H468   1.084       .  S
C464        C469   1.483       .  S
C464        C465   1.410       .  A
C465        C466   1.410       .  A
C465        N470   1.438       .  S
C466        H471   1.083       .  S
N467        H487   1.046       .  S
N467        H488   1.046       .  S
C469        C472   1.402       .  A
C469        C476   1.409       .  A
N470        H485   1.046       .  S
N470        H486   1.044       .  S
C472        C473   1.410       .  A
C472        H477   1.084       .  S
C473        C474   1.415       .  A
C473        N478   1.437       .  S
C474        C475   1.408       .  A
C475        C476   1.405       .  A
C475        H479   1.084       .  S
C476        N480   1.439       .  S
N478        H481   1.046       .  S
N478        H482   1.045       .  S
N480        H483   1.046       .  S
N480        H484   1.044       .  S
C489        C490   1.418       .  A
C489        C494   1.407       .  A
C490        C491   1.402       .  A
C490        N495   1.439       .  S
C491        C492   1.397       .  A
C491        H496   1.084       .  S
C492        C497   1.477       .  S
C492        C493   1.408       .  A
C493        C494   1.408       .  A
C493        N498   1.438       .  S
C494        H499   1.083       .  S
N495        H515   1.046       .  S
N495        H516   1.046       .  S
C497        C500   1.394       .  A
C497        C504   1.402       .  A
N498        H513   1.045       .  S
N498        H514   1.046       .  S
C500        C501   1.403       .  A
C500        H505   1.084       .  S
C501        C502   1.428       .  A
C501        N506   1.431       .  S
C502        C503   1.421       .  A
C503        C504   1.402       .  A
C503        H507   1.077       .  S
C504        N508   1.439       .  S
N506        H509   1.046       .  S
N506        H510   1.045       .  S
N508        H511   1.046       .  S
N508        H512   1.046       .  S
C517        C518   1.417       .  A
C517        C522   1.405       .  A
C518        C519   1.406       .  A
C518        N523   1.438       .  S
C519        C520   1.402       .  A
C519        H524   1.084       .  S
C520        C525   1.482       .  S
C520        C521   1.409       .  A
C521        C522   1.402       .  A
C521        N526   1.438       .  S
C522        H527   1.083       .  S
N523        H543   1.046       .  S
N523        H544   1.046       .  S
C525        C528   1.402       .  A
C525        C532   1.409       .  A
N526        H541   1.046       .  S
N526        H542   1.045       .  S
C528        C529   1.404       .  A
C528        H533   1.084       .  S
C529        C530   1.415       .  A
C529        N534   1.438       .  S
C530        C531   1.406       .  A
C531        C532   1.404       .  A
C531        H535   1.084       .  S
C532        N536   1.438       .  S
N534        H537   1.046       .  S
N534        H538   1.045       .  S
N536        H539   1.046       .  S
N536        H540   1.046       .  S
C545        C546   1.419       .  A
C545        C550   1.407       .  A
C546        C547   1.406       .  A
C546        N551   1.438       .  S
C547        C548   1.401       .  A
C547        H552   1.084       .  S
C548        C553   1.481       .  S
C548        C549   1.407       .  A
C549        C550   1.405       .  A
C549        N554   1.438       .  S
C550        H555   1.083       .  S
N551        H571   1.045       .  S
N551        H572   1.046       .  S
C553        C556   1.401       .  A
C553        C560   1.407       .  A
N554        H569   1.045       .  S
N554        H570   1.046       .  S
C556        C557   1.406       .  A
C556        H561   1.084       .  S
C557        C558   1.417       .  A
C557        N562   1.437       .  S
C558        C559   1.408       .  A
C559        C560   1.405       .  A
C559        H563   1.083       .  S
C560        N564   1.438       .  S
N562        H565   1.046       .  S
N562        H566   1.045       .  S
N564        H567   1.046       .  S
N564        H568   1.046       .  S
C573        C574   1.417       .  A
C573        C578   1.406       .  A
C574        C575   1.411       .  A
C574        N579   1.437       .  S
C575        C576   1.404       .  A
C575        H580   1.084       .  S
C576        C581   1.488       .  S
C576        C577   1.409       .  A
C577        C578   1.404       .  A
C577        N582   1.438       .  S
C578        H583   1.083       .  S
N579        H599   1.045       .  S
N579        H600   1.046       .  S
C581        C584   1.403       .  A
C581        C588   1.410       .  A
N582        H597   1.045       .  S
N582        H598   1.046       .  S
C584        C585   1.408       .  A
C584        H589   1.084       .  S
C585        C586   1.416       .  A
C585        N590   1.438       .  S
C586        C587   1.407       .  A
C587        C588   1.408       .  A
C587        H591   1.083       .  S
C588        N592   1.438       .  S
N590        H593   1.046       .  S
N590        H594   1.046       .  S
N592        H595   1.046       .  S
N592        H596   1.046       .  S
C601        C602   1.417       .  A
C601        C606   1.406       .  A
C602        C603   1.409       .  A
C602        N607   1.437       .  S
C603        C604   1.402       .  A
C603        H608   1.084       .  S
C604        C609   1.481   1_545  S
C604        C605   1.407       .  A
C605        C606   1.402       .  A
C605        N610   1.438       .  S
C606        H611   1.083       .  S
N607        H627   1.046       .  S
N607        H628   1.046       .  S
C609        C612   1.399       .  A
C609        C616   1.407       .  A
N610        H625   1.045       .  S
N610        H626   1.046   1_545  S
C612        C613   1.402       .  A
C612        H617   1.084       .  S
C613        C614   1.418       .  A
C613        N618   1.438       .  S
C614        C615   1.409       .  A
C615        C616   1.410       .  A
C615        H619   1.083       .  S
C616        N620   1.437       .  S
N618        H621   1.046       .  S
N618        H622   1.046       .  S
N620        H623   1.045       .  S
N620        H624   1.046       .  S
C629        C630   1.417       .  A
C629        C634   1.406       .  A
C630        C631   1.407       .  A
C630        N635   1.438       .  S
C631        C632   1.404       .  A
C631        H636   1.083       .  S
C632        C637   1.493       .  S
C632        C633   1.412       .  A
C633        C634   1.407       .  A
C633        N638   1.438       .  S
C634        H639   1.083       .  S
N635        H655   1.046       .  S
N635        H656   1.046       .  S
C637        C640   1.403       .  A
C637        C644   1.412       .  A
N638        H653   1.046       .  S
N638        H654   1.045       .  S
C640        C641   1.405       .  A
C640        H645   1.083       .  S
C641        C642   1.417       .  A
C641        N646   1.438       .  S
C642        C643   1.407       .  A
C643        C644   1.409       .  A
C643        H647   1.083       .  S
C644        N648   1.438       .  S
N646        H649   1.046       .  S
N646        H650   1.046       .  S
N648        H651   1.046       .  S
N648        H652   1.045       .  S
C657        C658   1.418       .  A
C657        C662   1.407       .  A
C658        C659   1.412       .  A
C658        N663   1.437       .  S
C659        C660   1.404       .  A
C659        H664   1.084       .  S
C660        C665   1.489   1_545  S
C660        C661   1.409       .  A
C661        C662   1.403       .  A
C661        N666   1.438       .  S
C662        H667   1.083       .  S
N663        H683   1.045       .  S
N663        H684   1.046       .  S
C665        C668   1.402       .  A
C665        C672   1.410       .  A
N666        H681   1.046       .  S
N666        H682   1.046       .  S
C668        C669   1.406       .  A
C668        H673   1.084       .  S
C669        C670   1.415       .  A
C669        N674   1.438       .  S
C670        C671   1.408       .  A
C671        C672   1.409       .  A
C671        H675   1.083       .  S
C672        N676   1.438       .  S
N674        H677   1.046       .  S
N674        H678   1.045       .  S
N676        H679   1.046       .  S
N676        H680   1.046       .  S
C685        C686   1.420       .  A
C685        C690   1.408       .  A
C686        C687   1.409       .  A
C686        N691   1.438       .  S
C687        C688   1.401       .  A
C687        H692   1.084       .  S
C688        C693   1.485       .  S
C688        C689   1.408       .  A
C689        C690   1.406       .  A
C689        N694   1.438       .  S
C690        H695   1.083       .  S
N691        H711   1.046       .  S
N691        H712   1.046       .  S
C693        C696   1.400       .  A
C693        C700   1.408       .  A
N694        H709   1.045       .  S
N694        H710   1.046       .  S
C696        C697   1.406       .  A
C696        H701   1.084       .  S
C697        C698   1.418       .  A
C697        N702   1.438       .  S
C698        C699   1.407       .  A
C699        C700   1.408       .  A
C699        H703   1.083       .  S
C700        N704   1.437       .  S
N702        H705   1.045       .  S
N702        H706   1.045       .  S
N704        H707   1.045       .  S
N704        H708   1.046       .  S
C713        C714   1.418       .  A
C713        C718   1.409       .  A
C714        C715   1.406       .  A
C714        N719   1.438       .  S
C715        C716   1.402       .  A
C715        H720   1.084       .  S
C716        C721   1.489       .  S
C716        C717   1.410       .  A
C717        C718   1.409       .  A
C717        N722   1.438       .  S
C718        H723   1.083       .  S
N719        H739   1.045       .  S
N719        H740   1.046       .  S
C721        C724   1.403       .  A
C721        C728   1.410       .  A
N722        H737   1.046       .  S
N722        H738   1.045       .  S
C724        C725   1.409       .  A
C724        H729   1.083       .  S
C725        C726   1.416       .  A
C725        N730   1.437       .  S
C726        C727   1.406       .  A
C727        C728   1.404       .  A
C727        H731   1.083       .  S
C728        N732   1.438       .  S
N730        H733   1.045       .  S
N730        H734   1.046       .  S
N732        H735   1.046       .  S
N732        H736   1.045       .  S
C741        C742   1.418       .  A
C741        C746   1.405       .  A
C742        C743   1.413       .  A
C742        N747   1.437       .  S
C743        C744   1.404       .  A
C743        H748   1.084       .  S
C744        C749   1.493       .  S
C744        C745   1.411       .  A
C745        C746   1.406       .  A
C745        N750   1.438       .  S
C746        H751   1.083       .  S
N747        H767   1.046       .  S
N747        H768   1.046       .  S
C749        C752   1.404       .  A
C749        C756   1.412       .  A
N750        H765   1.045       .  S
N750        H766   1.046       .  S
C752        C753   1.405       .  A
C752        H757   1.084       .  S
C753        C754   1.412       .  A
C753        N758   1.432       .  S
C754        C755   1.407       .  A
C755        C756   1.411       .  A
C755        H759   1.083       .  S
C756        N760   1.438       .  S
N758        H761   1.046       .  S
N758        H762   1.045       .  S
N760        H763   1.046       .  S
N760        H764   1.046       .  S
C769        C770   1.428       .  A
C769        C774   1.417       .  A
C770        C771   1.406       .  A
C770        N775   1.433       .  S
C771        C772   1.397       .  A
C771        H776   1.084       .  S
C772        C777   1.482       .  S
C772        C773   1.411       .  A
C773        C774   1.400       .  A
C773        N778   1.440       .  S
C774        H779   1.076       .  S
N775        H795   1.045       .  S
N775        H796   1.046       .  S
C777        C780   1.399       .  A
C777        C784   1.408       .  A
N778        H793   1.045       .  S
N778        H794   1.043       .  S
C780        C781   1.406       .  A
C780        H785   1.084       .  S
C781        C782   1.417       .  A
C781        N786   1.438       .  S
C782        C783   1.407       .  A
C783        C784   1.408       .  A
C783        H787   1.083       .  S
C784        N788   1.438       .  S
N786        H789   1.046       .  S
N786        H790   1.046       .  S
N788        H791   1.046       .  S
N788        H792   1.045       .  S
C797        C798   1.416       .  A
C797        C802   1.407       .  A
C798        C799   1.410       .  A
C798        N803   1.437       .  S
C799        C800   1.404       .  A
C799        H804   1.084       .  S
C800        C805   1.491   1_655  S
C800        C801   1.411       .  A
C801        C802   1.405       .  A
C801        N806   1.438       .  S
C802        H807   1.083       .  S
N803        H823   1.045       .  S
N803        H824   1.046       .  S
C805        C808   1.405       .  A
C805        C812   1.411       .  A
N806        H821   1.046       .  S
N806        H822   1.046       .  S
C808        C809   1.409       .  A
C808        H813   1.084       .  S
C809        C810   1.414       .  A
C809        N814   1.437       .  S
C810        C811   1.406       .  A
C811        C812   1.406       .  A
C811        H815   1.083       .  S
C812        N816   1.438       .  S
N814        H817   1.046       .  S
N814        H818   1.046       .  S
N816        H819   1.046       .  S
N816        H820   1.046   1_455  S
C825        C826   1.417       .  A
C825        C830   1.408       .  A
C826        C827   1.407       .  A
C826        N831   1.438       .  S
C827        C828   1.403       .  A
C827        H832   1.084       .  S
C828        C833   1.494       .  S
C828        C829   1.412       .  A
C829        C830   1.410       .  A
C829        N834   1.438       .  S
C830        H835   1.083       .  S
N831        H851   1.045       .  S
N831        H852   1.046       .  S
C833        C836   1.404       .  A
C833        C840   1.412       .  A
N834        H849   1.045       .  S
N834        H850   1.046       .  S
C836        C837   1.407       .  A
C836        H841   1.083       .  S
C837        C838   1.416       .  A
C837        N842   1.438       .  S
C838        C839   1.406       .  A
C839        C840   1.409       .  A
C839        H843   1.083       .  S
C840        N844   1.437       .  S
N842        H845   1.046       .  S
N842        H846   1.046       .  S
N844        H847   1.046       .  S
N844        H848   1.046       .  S
C853        C854   1.415       .  A
C853        C858   1.406       .  A
C854        C855   1.404       .  A
C854        N859   1.438       .  S
C855        C856   1.401       .  A
C855        H860   1.084       .  S
C856        C861   1.480       .  S
C856        C857   1.408       .  A
C857        C858   1.405       .  A
C857        N862   1.437       .  S
C858        H863   1.083       .  S
N859        H879   1.046       .  S
N859        H880   1.045       .  S
C861        C864   1.401       .  A
C861        C868   1.407       .  A
N862        H877   1.046       .  S
N862        H878   1.046       .  S
C864        C865   1.407       .  A
C864        H869   1.084       .  S
C865        C866   1.416       .  A
C865        N870   1.437       .  S
C866        C867   1.407       .  A
C867        C868   1.403       .  A
C867        H871   1.083       .  S
C868        N872   1.438       .  S
N870        H873   1.046       .  S
N870        H874   1.046       .  S
N872        H875   1.045       .  S
N872        H876   1.046       .  S
C881        C882   1.432       .  A
C881        C886   1.420       .  A
C882        C883   1.404       .  A
C882        N887   1.432       .  S
C883        C884   1.396       .  A
C883        H888   1.084       .  S
C884        C889   1.489       .  S
C884        C885   1.406       .  A
C885        C886   1.409       .  A
C885        N890   1.438       .  S
C886        H891   1.083       .  S
N887        H907   1.046       .  S
N887        H908   1.045       .  S
C889        C892   1.403       .  A
C889        C896   1.410       .  A
N890        H905   1.045       .  S
N890        H906   1.046       .  S
C892        C893   1.411       .  A
C892        H897   1.084       .  S
C893        C894   1.418       .  A
C893        N898   1.437       .  S
C894        C895   1.407       .  A
C895        C896   1.404       .  A
C895        H899   1.083       .  S
C896        N900   1.438       .  S
N898        H901   1.046       .  S
N898        H902   1.046       .  S
N900        H903   1.046       .  S
N900        H904   1.046       .  S
C909        C910   1.417       .  A
C909        C914   1.406       .  A
C910        C911   1.408       .  A
C910        N915   1.438       .  S
C911        C912   1.403       .  A
C911        H916   1.083       .  S
C912        C917   1.489   1_655  S
C912        C913   1.410       .  A
C913        C914   1.405       .  A
C913        N918   1.438       .  S
C914        H919   1.083       .  S
N915        H935   1.046       .  S
N915        H936   1.046       .  S
C917        C920   1.402       .  A
C917        C924   1.411       .  A
N918        H933   1.045       .  S
N918        H934   1.046       .  S
C920        C921   1.403       .  A
C920        H925   1.084       .  S
C921        C922   1.417       .  A
C921        N926   1.438       .  S
C922        C923   1.407       .  A
C923        C924   1.409       .  A
C923        H927   1.083       .  S
C924        N928   1.437       .  S
N926        H929   1.046       .  S
N926        H930   1.046       .  S
N928        H931   1.046       .  S
N928        H932   1.046       .  S
C937        C938   1.416       .  A
C937        C942   1.407       .  A
C938        C939   1.406       .  A
C938        N943   1.438       .  S
C939        C940   1.401       .  A
C939        H944   1.084       .  S
C940        C945   1.484       .  S
C940        C941   1.409       .  A
C941        C942   1.408       .  A
C941        N946   1.437       .  S
C942        H947   1.083       .  S
N943        H963   1.046       .  S
N943        H964   1.046       .  S
C945        C948   1.401       .  A
C945        C952   1.408       .  A
N946        H961   1.046       .  S
N946        H962   1.046       .  S
C948        C949   1.409       .  A
C948        H953   1.084       .  S
C949        C950   1.419       .  A
C949        N954   1.438       .  S
C950        C951   1.407       .  A
C951        C952   1.405       .  A
C951        H955   1.083       .  S
C952        N956   1.438       .  S
N954        H957   1.046       .  S
N954        H958   1.046       .  S
N956        H959   1.046       .  S
N956        H960   1.046       .  S
C965        C966   1.415       .  A
C965        C970   1.406       .  A
C966        C967   1.411       .  A
C966        N971   1.437       .  S
C967        C968   1.406       .  A
C967        H972   1.083       .  S
C968        C973   1.496       .  S
C968        C969   1.413       .  A
C969        C970   1.407       .  A
C969        N974   1.438       .  S
C970        H975   1.083       .  S
N971        H991   1.046       .  S
N971        H992   1.046       .  S
C973        C976   1.404       .  A
C973        C980   1.412       .  A
N974        H989   1.046       .  S
N974        H990   1.045       .  S
C976        C977   1.409       .  A
C976        H981   1.084       .  S
C977        C978   1.417       .  A
C977        N982   1.437       .  S
C978        C979   1.408       .  A
C979        C980   1.409       .  A
C979        H983   1.083       .  S
C980        N984   1.438       .  S
N982        H985   1.046       .  S
N982        H986   1.045       .  S
N984        H987   1.046       .  S
N984        H988   1.046       .  S
C993        C994   1.417       .  A
C993        C998   1.407       .  A
C994        C995   1.408       .  A
C994        N999   1.438       .  S
C995        C996   1.404   1_545  A
C995       H1000   1.084   1_545  S
C996       C1001   1.491       .  S
C996        C997   1.410   1_565  A
C997        C998   1.407       .  A
C997       N1002   1.438       .  S
C998       H1003   1.083       .  S
N999       H1019   1.046       .  S
N999       H1020   1.046       .  S
C1001      C1004   1.402       .  A
C1001      C1008   1.411       .  A
N1002      H1017   1.046       .  S
N1002      H1018   1.045   1_545  S
C1004      C1005   1.405       .  A
C1004      H1009   1.084       .  S
C1005      C1006   1.418       .  A
C1005      N1010   1.438       .  S
C1006      C1007   1.407       .  A
C1007      C1008   1.409       .  A
C1007      H1011   1.083       .  S
C1008      N1012   1.437       .  S
N1010      H1013   1.046       .  S
N1010      H1014   1.045       .  S
N1012      H1015   1.045       .  S
N1012      H1016   1.046       .  S
C1021      C1022   1.417       .  A
C1021      C1026   1.406       .  A
C1022      C1023   1.416       .  A
C1022      N1027   1.437       .  S
C1023      C1024   1.406       .  A
C1023      H1028   1.083       .  S
C1024      C1029   1.495   1_655  S
C1024      C1025   1.410       .  A
C1025      C1026   1.404       .  A
C1025      N1030   1.439       .  S
C1026      H1031   1.083       .  S
N1027      H1047   1.046       .  S
N1027      H1048   1.046       .  S
C1029      C1032   1.404       .  A
C1029      C1036   1.411       .  A
N1030      H1045   1.045       .  S
N1030      H1046   1.046   1_655  S
C1032      C1033   1.409       .  A
C1032      H1037   1.084       .  S
C1033      C1034   1.416       .  A
C1033      N1038   1.437       .  S
C1034      C1035   1.409       .  A
C1035      C1036   1.411       .  A
C1035      H1039   1.083       .  S
C1036      N1040   1.437       .  S
N1038      H1041   1.046       .  S
N1038      H1042   1.046       .  S
N1040      H1043   1.046       .  S
N1040      H1044   1.045       .  S
C1049      C1050   1.419       .  A
C1049      C1054   1.407       .  A
C1050      C1051   1.411       .  A
C1050      N1055   1.438       .  S
C1051      C1052   1.404       .  A
C1051      H1056   1.083       .  S
C1052      C1057   1.497       .  S
C1052      C1053   1.412       .  A
C1053      C1054   1.408       .  A
C1053      N1058   1.438       .  S
C1054      H1059   1.083       .  S
N1055      H1075   1.046       .  S
N1055      H1076   1.046       .  S
C1057      C1060   1.404       .  A
C1057      C1064   1.412       .  A
N1058      H1073   1.045       .  S
N1058      H1074   1.046       .  S
C1060      C1061   1.407       .  A
C1060      H1065   1.083       .  S
C1061      C1062   1.417       .  A
C1061      N1066   1.438       .  S
C1062      C1063   1.408       .  A
C1063      C1064   1.411       .  A
C1063      H1067   1.083       .  S
C1064      N1068   1.437       .  S
N1066      H1069   1.045       .  S
N1066      H1070   1.046       .  S
N1068      H1071   1.046       .  S
N1068      H1072   1.046       .  S
C1077      C1078   1.415       .  A
C1077      C1082   1.408       .  A
C1078      C1079   1.405       .  A
C1078      N1083   1.438       .  S
C1079      C1080   1.403       .  A
C1079      H1084   1.084       .  S
C1080      C1085   1.489   1_545  S
C1080      C1081   1.410       .  A
C1081      C1082   1.408       .  A
C1081      N1086   1.437       .  S
C1082      H1087   1.083       .  S
N1083      H1103   1.046       .  S
N1083      H1104   1.046       .  S
C1085      C1088   1.403       .  A
C1085      C1092   1.410       .  A
N1086      H1101   1.046       .  S
N1086      H1102   1.045       .  S
C1088      C1089   1.407       .  A
C1088      H1093   1.083       .  S
C1089      C1090   1.417       .  A
C1089      N1094   1.438       .  S
C1090      C1091   1.407       .  A
C1091      C1092   1.406       .  A
C1091      H1095   1.083       .  S
C1092      N1096   1.438       .  S
N1094      H1097   1.046       .  S
N1094      H1098   1.046       .  S
N1096      H1099   1.046       .  S
N1096      H1100   1.046       .  S
C1105      C1106   1.417       .  A
C1105      C1110   1.406       .  A
C1106      C1107   1.408       .  A
C1106      N1111   1.438       .  S
C1107      C1108   1.402       .  A
C1107      H1112   1.084       .  S
C1108      C1113   1.485       .  S
C1108      C1109   1.409       .  A
C1109      C1110   1.403       .  A
C1109      N1114   1.438       .  S
C1110      H1115   1.083       .  S
N1111      H1131   1.045       .  S
N1111      H1132   1.046       .  S
C1113      C1116   1.401       .  A
C1113      C1120   1.409       .  A
N1114      H1129   1.046       .  S
N1114      H1130   1.045       .  S
C1116      C1117   1.405       .  A
C1116      H1121   1.084       .  S
C1117      C1118   1.416       .  A
C1117      N1122   1.438       .  S
C1118      C1119   1.407       .  A
C1119      C1120   1.407       .  A
C1119      H1123   1.083       .  S
C1120      N1124   1.438       .  S
N1122      H1125   1.046       .  S
N1122      H1126   1.046       .  S
N1124      H1127   1.046       .  S
N1124      H1128   1.045       .  S
C1133      C1134   1.416       .  A
C1133      C1138   1.406       .  A
C1134      C1135   1.407       .  A
C1134      N1139   1.438       .  S
C1135      C1136   1.403       .  A
C1135      H1140   1.083       .  S
C1136      C1141   1.492   1_655  S
C1136      C1137   1.412       .  A
C1137      C1138   1.407       .  A
C1137      N1142   1.438       .  S
C1138      H1143   1.084       .  S
N1139      H1159   1.045       .  S
N1139      H1160   1.045       .  S
C1141      C1144   1.402       .  A
C1141      C1148   1.412       .  A
N1142      H1157   1.046       .  S
N1142      H1158   1.045       .  S
C1144      C1145   1.403       .  A
C1144      H1149   1.084       .  S
C1145      C1146   1.418       .  A
C1145      N1150   1.439       .  S
C1146      C1147   1.407       .  A
C1147      C1148   1.410       .  A
C1147      H1151   1.083       .  S
C1148      N1152   1.437       .  S
N1150      H1153   1.045       .  S
N1150      H1154   1.046       .  S
N1152      H1155   1.045       .  S
N1152      H1156   1.046       .  S
C1161      C1162   1.417       .  A
C1161      C1166   1.407       .  A
C1162      C1163   1.408       .  A
C1162      N1167   1.438       .  S
C1163      C1164   1.401       .  A
C1163      H1168   1.084       .  S
C1164      C1169   1.485       .  S
C1164      C1165   1.409       .  A
C1165      C1166   1.405       .  A
C1165      N1170   1.438       .  S
C1166      H1171   1.083       .  S
N1167      H1187   1.046       .  S
N1167      H1188   1.045       .  S
C1169      C1172   1.402       .  A
C1169      C1176   1.408       .  A
N1170      H1185   1.045       .  S
N1170      H1186   1.046       .  S
C1172      C1173   1.407       .  A
C1172      H1177   1.084       .  S
C1173      C1174   1.417       .  A
C1173      N1178   1.438       .  S
C1174      C1175   1.408       .  A
C1175      C1176   1.406       .  A
C1175      H1179   1.083       .  S
C1176      N1180   1.438       .  S
N1178      H1181   1.046       .  S
N1178      H1182   1.046       .  S
N1180      H1183   1.045       .  S
N1180      H1184   1.046       .  S
C1189      C1190   1.414       .  A
C1189      C1194   1.406       .  A
C1190      C1191   1.409       .  A
C1190      N1195   1.438       .  S
C1191      C1192   1.405       .  A
C1191      H1196   1.084       .  S
C1192      C1197   1.493       .  S
C1192      C1193   1.411       .  A
C1193      C1194   1.408       .  A
C1193      N1198   1.437       .  S
C1194      H1199   1.084       .  S
N1195      H1215   1.046       .  S
N1195      H1216   1.045       .  S
C1197      C1200   1.403       .  A
C1197      C1204   1.409       .  A
N1198      H1213   1.046       .  S
N1198      H1214   1.045       .  S
C1200      C1201   1.410       .  A
C1200      H1205   1.084       .  S
C1201      C1202   1.420       .  A
C1201      N1206   1.438       .  S
C1202      C1203   1.408       .  A
C1203      C1204   1.409       .  A
C1203      H1207   1.083       .  S
C1204      N1208   1.437       .  S
N1206      H1209   1.046       .  S
N1206      H1210   1.045       .  S
N1208      H1211   1.045       .  S
N1208      H1212   1.046       .  S
C1217      C1218   1.429       .  A
C1217      C1222   1.418       .  A
C1218      C1219   1.406       .  A
C1218      N1223   1.434       .  S
C1219      C1220   1.399       .  A
C1219      H1224   1.084       .  S
C1220      C1225   1.488       .  S
C1220      C1221   1.412       .  A
C1221      C1222   1.402       .  A
C1221      N1226   1.439       .  S
C1222      H1227   1.079       .  S
N1223      H1243   1.045       .  S
N1223      H1244   1.046       .  S
C1225      C1228   1.402       .  A
C1225      C1232   1.410       .  A
N1226      H1241   1.045       .  S
N1226      H1242   1.044       .  S
C1228      C1229   1.403       .  A
C1228      H1233   1.084       .  S
C1229      C1230   1.414       .  A
C1229      N1234   1.438       .  S
C1230      C1231   1.407       .  A
C1231      C1232   1.411       .  A
C1231      H1235   1.083       .  S
C1232      N1236   1.437       .  S
N1234      H1237   1.046       .  S
N1234      H1238   1.046       .  S
N1236      H1239   1.046       .  S
N1236      H1240   1.046       .  S
C1245      C1246   1.428       .  A
C1245      C1250   1.417       .  A
C1246      C1247   1.411       .  A
C1246      N1251   1.433       .  S
C1247      C1248   1.404       .  A
C1247      H1252   1.083       .  S
C1248      C1253   1.498   1_556  S
C1248      C1249   1.407       .  A
C1249      C1250   1.395       .  A
C1249      N1254   1.433       .  S
C1250      H1255   1.077       .  S
N1251      H1271   1.045       .  S
N1251      H1272   1.046       .  S
C1253      C1256   1.403       .  A
C1253      C1260   1.411       .  A
N1254      H1269   1.046       .  S
N1254      H1270   1.045       .  S
C1256      C1257   1.404       .  A
C1256      H1261   1.084       .  S
C1257      C1258   1.422       .  A
C1257      N1262   1.430       .  S
C1258      C1259   1.418       .  A
C1259      C1260   1.409       .  A
C1259      H1263   1.080       .  S
C1260      N1264   1.438       .  S
N1262      H1265   1.045       .  S
N1262      H1266   1.046       .  S
N1264      H1267   1.046       .  S
N1264      H1268   1.045       .  S
C1273      C1274   1.427       .  A
C1273      C1278   1.418       .  A
C1274      C1275   1.408       .  A
C1274      N1279   1.431       .  S
C1275      C1276   1.402       .  A
C1275      H1280   1.084       .  S
C1276      C1281   1.491       .  S
C1276      C1277   1.407       .  A
C1277      C1278   1.401       .  A
C1277      N1282   1.439       .  S
C1278      H1283   1.081       .  S
N1279      H1299   1.046       .  S
N1279      H1300   1.045       .  S
C1281      C1284   1.404       .  A
C1281      C1288   1.413       .  A
N1282      H1297   1.046       .  S
N1282      H1298   1.045       .  S
C1284      C1285   1.403       .  A
C1284      H1289   1.084       .  S
C1285      C1286   1.413       .  A
C1285      N1290   1.439       .  S
C1286      C1287   1.403       .  A
C1287      C1288   1.409       .  A
C1287      H1291   1.084       .  S
C1288      N1292   1.437       .  S
N1290      H1293   1.046       .  S
N1290      H1294   1.046       .  S
N1292      H1295   1.045       .  S
N1292      H1296   1.046       .  S
C1301      C1302   1.427       .  A
C1301      C1306   1.420       .  A
C1302      C1303   1.409       .  A
C1302      N1307   1.435       .  S
C1303      C1304   1.406       .  A
C1303      H1308   1.081       .  S
C1304      C1309   1.506   1_565  S
C1304      C1305   1.412       .  A
C1305      C1306   1.402       .  A
C1305      N1310   1.439       .  S
C1306      H1311   1.081       .  S
N1307      H1327   1.044       .  S
N1307      H1328   1.046       .  S
C1309      C1312   1.404       .  A
C1309      C1316   1.413       .  A
N1310      H1325   1.046       .  S
N1310      H1326   1.045       .  S
C1312      C1313   1.407       .  A
C1312      H1317   1.082       .  S
C1313      C1314   1.434       .  A
C1313      N1318   1.440       .  S
C1314      C1315   1.415       .  A
C1315      C1316   1.405       .  A
C1315      H1319   1.072       .  S
C1316      N1320   1.438       .  S
N1318      H1321   1.045       .  S
N1318      H1322   1.044       .  S
N1320      H1323   1.045       .  S
N1320      H1324   1.046       .  S
C1329      C1330   1.442       .  A
C1329      C1334   1.422       .  A
C1330      C1331   1.411       .  A
C1330      N1335   1.440       .  S
C1331      C1332   1.399       .  A
C1331      H1336   1.084       .  S
C1332      C1337   1.488       .  S
C1332      C1333   1.403       .  A
C1333      C1334   1.394       .  A
C1333      N1338   1.434       .  S
C1334      H1339   1.079       .  S
N1335      H1355   1.034       .  S
N1335      H1356   1.046       .  S
C1337      C1340   1.402       .  A
C1337      C1344   1.408       .  A
N1338      H1353   1.044       .  S
N1338      H1354   1.046       .  S
C1340      C1341   1.405       .  A
C1340      H1345   1.084       .  S
C1341      C1342   1.414       .  A
C1341      N1346   1.438       .  S
C1342      C1343   1.410       .  A
C1343      C1344   1.412       .  A
C1343      H1347   1.083       .  S
C1344      N1348   1.437       .  S
N1346      H1349   1.046       .  S
N1346      H1350   1.046       .  S
N1348      H1351   1.045       .  S
N1348      H1352   1.046       .  S
C1357      C1358   1.431       .  A
C1357      C1362   1.417       .  A
C1358      C1359   1.404       .  A
C1358      N1363   1.432       .  S
C1359      C1360   1.396       .  A
C1359      H1364   1.084       .  S
C1360      C1365   1.483   1_565  S
C1360      C1361   1.406       .  A
C1361      C1362   1.403       .  A
C1361      N1366   1.438       .  S
C1362      H1367   1.083       .  S
N1363      H1383   1.045       .  S
N1363      H1384   1.046       .  S
C1365      C1368   1.397       .  A
C1365      C1372   1.414       .  A
N1366      H1381   1.046       .  S
N1366      H1382   1.045       .  S
C1368      C1369   1.399       .  A
C1368      H1373   1.085       .  S
C1369      C1370   1.425       .  A
C1369      N1374   1.430       .  S
C1370      C1371   1.418       .  A
C1371      C1372   1.405       .  A
C1371      H1375   1.082       .  S
C1372      N1376   1.439       .  S
N1374      H1377   1.044       .  S
N1374      H1378   1.046       .  S
N1376      H1379   1.045       .  S
N1376      H1380   1.042   1_545  S
C1385      C1386   1.434       .  A
C1385      C1390   1.422       .  A
C1386      C1387   1.414       .  A
C1386      N1391   1.439       .  S
C1387      C1388   1.398       .  A
C1387      H1392   1.083       .  S
C1388      C1393   1.486   1_554  S
C1388      C1389   1.402       .  A
C1389      C1390   1.403       .  A
C1389      N1394   1.441       .  S
C1390      H1395   1.073       .  S
N1391      H1411   1.043       .  S
N1391      H1412   1.045       .  S
C1393      C1396   1.398       .  A
C1393      C1400   1.403       .  A
N1394      H1409   1.046       .  S
N1394      H1410   1.044   1_554  S
C1396      C1397   1.410       .  A
C1396      H1401   1.084       .  S
C1397      C1398   1.432       .  A
C1397      N1402   1.431       .  S
C1398      C1399   1.420       .  A
C1399      C1400   1.403       .  A
C1399      H1403   1.081       .  S
C1400      N1404   1.439       .  S
N1402      H1405   1.045       .  S
N1402      H1406   1.046       .  S
N1404      H1407   1.046       .  S
N1404      H1408   1.044       .  S
C1413      C1414   1.418       .  A
C1413      C1418   1.408       .  A
C1414      C1415   1.406       .  A
C1414      N1419   1.438       .  S
C1415      C1416   1.402       .  A
C1415      H1420   1.084       .  S
C1416      C1421   1.490       .  S
C1416      C1417   1.410       .  A
C1417      C1418   1.409       .  A
C1417      N1422   1.437       .  S
C1418      H1423   1.083       .  S
N1419      H1439   1.045       .  S
N1419      H1440   1.046       .  S
C1421      C1424   1.400       .  A
C1421      C1428   1.415       .  A
N1422      H1437   1.045       .  S
N1422      H1438   1.046       .  S
C1424      C1425   1.403       .  A
C1424      H1429   1.084       .  S
C1425      C1426   1.425       .  A
C1425      N1430   1.433       .  S
C1426      C1427   1.416       .  A
C1427      C1428   1.404       .  A
C1427      H1431   1.080       .  S
C1428      N1432   1.439       .  S
N1430      H1433   1.046       .  S
N1430      H1434   1.045       .  S
N1432      H1435   1.046       .  S
N1432      H1436   1.043       .  S
C1441      C1442   1.443       .  A
C1441      C1446   1.424       .  A
C1442      C1443   1.406       .  A
C1442      N1447   1.439       .  S
C1443      C1444   1.395       .  A
C1443      H1448   1.084       .  S
C1444      C1449   1.480       .  S
C1444      C1445   1.406       .  A
C1445      C1446   1.397       .  A
C1445      N1450   1.441       .  S
C1446      H1451   1.076       .  S
N1447      H1467   1.034       .  S
N1447      H1468   1.046       .  S
C1449      C1452   1.398       .  A
C1449      C1456   1.408       .  A
N1450      H1465   1.046       .  S
N1450      H1466   1.043       .  S
C1452      C1453   1.406       .  A
C1452      H1457   1.084       .  S
C1453      C1454   1.419       .  A
C1453      N1458   1.438       .  S
C1454      C1455   1.408       .  A
C1455      C1456   1.408       .  A
C1455      H1459   1.083       .  S
C1456      N1460   1.438       .  S
N1458      H1461   1.046       .  S
N1458      H1462   1.046       .  S
N1460      H1463   1.046       .  S
N1460      H1464   1.045       .  S
C1469      C1470   1.426       .  A
C1469      C1474   1.415       .  A
C1470      C1471   1.405       .  A
C1470      N1475   1.432       .  S
C1471      C1472   1.400       .  A
C1471      H1476   1.084       .  S
C1472      C1477   1.485   1_554  S
C1472      C1473   1.412       .  A
C1473      C1474   1.401       .  A
C1473      N1478   1.439       .  S
C1474      H1479   1.079       .  S
N1475      H1495   1.045       .  S
N1475      H1496   1.046       .  S
C1477      C1480   1.396       .  A
C1477      C1484   1.405       .  A
N1478      H1493   1.046       .  S
N1478      H1494   1.044   1_554  S
C1480      C1481   1.398       .  A
C1480      H1485   1.085       .  S
C1481      C1482   1.429       .  A
C1481      N1486   1.433       .  S
C1482      C1483   1.421       .  A
C1483      C1484   1.411       .  A
C1483      H1487   1.079       .  S
C1484      N1488   1.437       .  S
N1486      H1489   1.046       .  S
N1486      H1490   1.045       .  S
N1488      H1491   1.045       .  S
N1488      H1492   1.046       .  S
C1497      C1498   1.426       .  A
C1497      C1502   1.419       .  A
C1498      C1499   1.401       .  A
C1498      N1503   1.433       .  S
C1499      C1500   1.397       .  A
C1499      H1504   1.084       .  S
C1500      C1505   1.480       .  S
C1500      C1501   1.412       .  A
C1501      C1502   1.400       .  A
C1501      N1506   1.440       .  S
C1502      H1507   1.078       .  S
N1503      H1523   1.046       .  S
N1503      H1524   1.046       .  S
C1505      C1508   1.401       .  A
C1505      C1512   1.408       .  A
N1506      H1521   1.046       .  S
N1506      H1522   1.043       .  S
C1508      C1509   1.404       .  A
C1508      H1513   1.084       .  S
C1509      C1510   1.416       .  A
C1509      N1514   1.438       .  S
C1510      C1511   1.406       .  A
C1511      C1512   1.406       .  A
C1511      H1515   1.083       .  S
C1512      N1516   1.437       .  S
N1514      H1517   1.046       .  S
N1514      H1518   1.046       .  S
N1516      H1519   1.046       .  S
N1516      H1520   1.046       .  S
C1525      C1526   1.429       .  A
C1525      C1530   1.419       .  A
C1526      C1527   1.409       .  A
C1526      N1531   1.432       .  S
C1527      C1528   1.401       .  A
C1527      H1532   1.084       .  S
C1528      C1533   1.489   1_565  S
C1528      C1529   1.405       .  A
C1529      C1530   1.403       .  A
C1529      N1534   1.438       .  S
C1530      H1535   1.082       .  S
N1531      H1551   1.045       .  S
N1531      H1552   1.045       .  S
C1533      C1536   1.398       .  A
C1533      C1540   1.405       .  A
N1534      H1549   1.045       .  S
N1534      H1550   1.046       .  S
C1536      C1537   1.402       .  A
C1536      H1541   1.084       .  S
C1537      C1538   1.431       .  A
C1537      N1542   1.432       .  S
C1538      C1539   1.422       .  A
C1539      C1540   1.409       .  A
C1539      H1543   1.083       .  S
C1540      N1544   1.437       .  S
N1542      H1545   1.045       .  S
N1542      H1546   1.046       .  S
N1544      H1547   1.046       .  S
N1544      H1548   1.045       .  S
C1553      C1554   1.418       .  A
C1553      C1558   1.407       .  A
C1554      C1555   1.406       .  A
C1554      N1559   1.438       .  S
C1555      C1556   1.403       .  A
C1555      H1560   1.084       .  S
C1556      C1561   1.488       .  S
C1556      C1557   1.409       .  A
C1557      C1558   1.405       .  A
C1557      N1562   1.438       .  S
C1558      H1563   1.083       .  S
N1559      H1579   1.045       .  S
N1559      H1580   1.046       .  S
C1561      C1564   1.402       .  A
C1561      C1568   1.412       .  A
N1562      H1577   1.045       .  S
N1562      H1578   1.045       .  S
C1564      C1565   1.403       .  A
C1564      H1569   1.084       .  S
C1565      C1566   1.422       .  A
C1565      N1570   1.432       .  S
C1566      C1567   1.419       .  A
C1567      C1568   1.400       .  A
C1567      H1571   1.080       .  S
C1568      N1572   1.438       .  S
N1570      H1573   1.046       .  S
N1570      H1574   1.045       .  S
N1572      H1575   1.046       .  S
N1572      H1576   1.043       .  S
C1581      C1582   1.431       .  A
C1581      C1586   1.417       .  A
C1582      C1583   1.407       .  A
C1582      N1587   1.433       .  S
C1583      C1584   1.403       .  A
C1583      H1588   1.082       .  S
C1584      C1589   1.504   1_565  S
C1584      C1585   1.412       .  A
C1585      C1586   1.404       .  A
C1585      N1590   1.440       .  S
C1586      H1591   1.070       .  S
N1587      H1607   1.046       .  S
N1587      H1608   1.045       .  S
C1589      C1592   1.401       .  A
C1589      C1596   1.412       .  A
N1590      H1605   1.046       .  S
N1590      H1606   1.046       .  S
C1592      C1593   1.400       .  A
C1592      H1597   1.082       .  S
C1593      C1594   1.429       .  A
C1593      N1598   1.430       .  S
C1594      C1595   1.422       .  A
C1595      C1596   1.410       .  A
C1595      H1599   1.083       .  S
C1596      N1600   1.438       .  S
N1598      H1601   1.046       .  S
N1598      H1602   1.046       .  S
N1600      H1603   1.045       .  S
N1600      H1604   1.046       .  S
C1609      C1610   1.432       .  A
C1609      C1614   1.419       .  A
C1610      C1611   1.405       .  A
C1610      N1615   1.433       .  S
C1611      C1612   1.397       .  A
C1611      H1616   1.084       .  S
C1612      C1617   1.489   1_554  S
C1612      C1613   1.406       .  A
C1613      C1614   1.412       .  A
C1613      N1618   1.438       .  S
C1614      H1619   1.076       .  S
N1615      H1635   1.045       .  S
N1615      H1636   1.046       .  S
C1617      C1620   1.395       .  A
C1617      C1624   1.406       .  A
N1618      H1633   1.045       .  S
N1618      H1634   1.044       .  S
C1620      C1621   1.402       .  A
C1620      H1625   1.085       .  S
C1621      C1622   1.434       .  A
C1621      N1626   1.432       .  S
C1622      C1623   1.422       .  A
C1623      C1624   1.413       .  A
C1623      H1627   1.083       .  S
C1624      N1628   1.437       .  S
N1626      H1629   1.046       .  S
N1626      H1630   1.046       .  S
N1628      H1631   1.046       .  S
N1628      H1632   1.043       .  S
C1637      C1638   1.414       .  A
C1637      C1642   1.408       .  A
C1638      C1639   1.409       .  A
C1638      N1643   1.432       .  S
C1639      C1640   1.403       .  A
C1639      H1644   1.084       .  S
C1640      C1645   1.485       .  S
C1640      C1641   1.407       .  A
C1641      C1642   1.405       .  A
C1641      N1646   1.438       .  S
C1642      H1647   1.083       .  S
N1643      H1663   1.046       .  S
N1643      H1664   1.046       .  S
C1645      C1648   1.394       .  A
C1645      C1652   1.411       .  A
N1646      H1661   1.046       .  S
N1646      H1662   1.045       .  S
C1648      C1649   1.401       .  A
C1648      H1653   1.085       .  S
C1649      C1650   1.434       .  A
C1649      N1654   1.430       .  S
C1650      C1651   1.421       .  A
C1651      C1652   1.406       .  A
C1651      H1655   1.084       .  S
C1652      N1656   1.438       .  S
N1654      H1657   1.046       .  S
N1654      H1658   1.046       .  S
N1656      H1659   1.046       .  S
N1656      H1660   1.043       .  S
C1665      C1666   1.425       .  A
C1665      C1670   1.419       .  A
C1666      C1667   1.402       .  A
C1666      N1671   1.434       .  S
C1667      C1668   1.400       .  A
C1667      H1672   1.084       .  S
C1668      C1673   1.490       .  S
C1668      C1669   1.411       .  A
C1669      C1670   1.402       .  A
C1669      N1674   1.433       .  S
C1670      H1675   1.079       .  S
N1671      H1691   1.046       .  S
N1671      H1692   1.045       .  S
C1673      C1676   1.406       .  A
C1673      C1680   1.409       .  A
N1674      H1689   1.046       .  S
N1674      H1690   1.043       .  S
C1676      C1677   1.412       .  A
C1676      H1681   1.083       .  S
C1677      C1678   1.413       .  A
C1677      N1682   1.437       .  S
C1678      C1679   1.402       .  A
C1679      C1680   1.400       .  A
C1679      H1683   1.084       .  S
C1680      N1684   1.433       .  S
N1682      H1685   1.046       .  S
N1682      H1686   1.045       .  S
N1684      H1687   1.045       .  S
N1684      H1688   1.046       .  S
C1693      C1694   1.426       .  A
C1693      C1698   1.419       .  A
C1694      C1695   1.394       .  A
C1694      N1699   1.432       .  S
C1695      C1696   1.402       .  A
C1695      H1700   1.081       .  S
C1696      C1701   1.510   1_556  S
C1696      C1697   1.414       .  A
C1697      C1698   1.413       .  A
C1697      N1702   1.431       .  S
C1698      H1703   1.083       .  S
N1699      H1719   1.046       .  S
N1699      H1720   1.046       .  S
C1701      C1704   1.407       .  A
C1701      C1708   1.413       .  A
N1702      H1717   1.046       .  S
N1702      H1718   1.046       .  S
C1704      C1705   1.413       .  A
C1704      H1709   1.081       .  S
C1705      C1706   1.427       .  A
C1705      N1710   1.431       .  S
C1706      C1707   1.413       .  A
C1707      C1708   1.397       .  A
C1707      H1711   1.070       .  S
C1708      N1712   1.440       .  S
N1710      H1713   1.045       .  S
N1710      H1714   1.046       .  S
N1712      H1715   1.046       .  S
N1712      H1716   1.045       .  S
C1721      C1722   1.427       .  A
C1721      C1726   1.417       .  A
C1722      C1723   1.406       .  A
C1722      N1727   1.432       .  S
C1723      C1724   1.399       .  A
C1723      H1728   1.084       .  S
C1724      C1729   1.484       .  S
C1724      C1725   1.413       .  A
C1725      C1726   1.402       .  A
C1725      N1730   1.439       .  S
C1726      H1731   1.084       .  S
N1727      H1747   1.046       .  S
N1727      H1748   1.045       .  S
C1729      C1732   1.399       .  A
C1729      C1736   1.408       .  A
N1730      H1745   1.045       .  S
N1730      H1746   1.043       .  S
C1732      C1733   1.405       .  A
C1732      H1737   1.084       .  S
C1733      C1734   1.419       .  A
C1733      N1738   1.438       .  S
C1734      C1735   1.409       .  A
C1735      C1736   1.410       .  A
C1735      H1739   1.083       .  S
C1736      N1740   1.437       .  S
N1738      H1741   1.046       .  S
N1738      H1742   1.046       .  S
N1740      H1743   1.045       .  S
N1740      H1744   1.045       .  S
C1749      C1750   1.425       .  A
C1749      C1754   1.421       .  A
C1750      C1751   1.404       .  A
C1750      N1755   1.432       .  S
C1751      C1752   1.399       .  A
C1751      H1756   1.084       .  S
C1752      C1757   1.490   1_655  S
C1752      C1753   1.406       .  A
C1753      C1754   1.409       .  A
C1753      N1758   1.438       .  S
C1754      H1759   1.079       .  S
N1755      H1775   1.046       .  S
N1755      H1776   1.046       .  S
C1757      C1760   1.397       .  A
C1757      C1764   1.407       .  A
N1758      H1773   1.046       .  S
N1758      H1774   1.045       .  S
C1760      C1761   1.403       .  A
C1760      H1765   1.084       .  S
C1761      C1762   1.429       .  A
C1761      N1766   1.432       .  S
C1762      C1763   1.418       .  A
C1763      C1764   1.410       .  A
C1763      H1767   1.078       .  S
C1764      N1768   1.437       .  S
N1766      H1769   1.045       .  S
N1766      H1770   1.046       .  S
N1768      H1771   1.046       .  S
N1768      H1772   1.046       .  S
C1777      C1778   1.429       .  A
C1777      C1782   1.418       .  A
C1778      C1779   1.407       .  A
C1778      N1783   1.432       .  S
C1779      C1780   1.397       .  A
C1779      H1784   1.084       .  S
C1780      C1785   1.480       .  S
C1780      C1781   1.403       .  A
C1781      C1782   1.403       .  A
C1781      N1786   1.438       .  S
C1782      H1787   1.082       .  S
N1783      H1803   1.045       .  S
N1783      H1804   1.045       .  S
C1785      C1788   1.399       .  A
C1785      C1792   1.408       .  A
N1786      H1801   1.046       .  S
N1786      H1802   1.045       .  S
C1788      C1789   1.404       .  A
C1788      H1793   1.084       .  S
C1789      C1790   1.417       .  A
C1789      N1794   1.438       .  S
C1790      C1791   1.408       .  A
C1791      C1792   1.410       .  A
C1791      H1795   1.083       .  S
C1792      N1796   1.437       .  S
N1794      H1797   1.046       .  S
N1794      H1798   1.046       .  S
N1796      H1799   1.046       .  S
N1796      H1800   1.045       .  S
C1805      C1806   1.428       .  A
C1805      C1810   1.422       .  A
C1806      C1807   1.403       .  A
C1806      N1811   1.432       .  S
C1807      C1808   1.400       .  A
C1807      H1812   1.084       .  S
C1808      C1813   1.492   1_655  S
C1808      C1809   1.412       .  A
C1809      C1810   1.405       .  A
C1809      N1814   1.440       .  S
C1810      H1815   1.075       .  S
N1811      H1831   1.046       .  S
N1811      H1832   1.045       .  S
C1813      C1816   1.402       .  A
C1813      C1820   1.412       .  A
N1814      H1829   1.046       .  S
N1814      H1830   1.042   1_655  S
C1816      C1817   1.407       .  A
C1816      H1821   1.084       .  S
C1817      C1818   1.428       .  A
C1817      N1822   1.433       .  S
C1818      C1819   1.419       .  A
C1819      C1820   1.400       .  A
C1819      H1823   1.078       .  S
C1820      N1824   1.440       .  S
N1822      H1825   1.045       .  S
N1822      H1826   1.046       .  S
N1824      H1827   1.046       .  S
N1824      H1828   1.043       .  S
C1833      C1834   1.426       .  A
C1833      C1838   1.421       .  A
C1834      C1835   1.409       .  A
C1834      N1839   1.431       .  S
C1835      C1836   1.398       .  A
C1835      H1840   1.084       .  S
C1836      C1841   1.488   1_556  S
C1836      C1837   1.405       .  A
C1837      C1838   1.407       .  A
C1837      N1842   1.439       .  S
C1838      H1843   1.079       .  S
N1839      H1859   1.045       .  S
N1839      H1860   1.046       .  S
C1841      C1844   1.396       .  A
C1841      C1848   1.404       .  A
N1842      H1857   1.046       .  S
N1842      H1858   1.044   1_556  S
C1844      C1845   1.408       .  A
C1844      H1849   1.084       .  S
C1845      C1846   1.437       .  A
C1845      N1850   1.432       .  S
C1846      C1847   1.421       .  A
C1847      C1848   1.407       .  A
C1847      H1851   1.083       .  S
C1848      N1852   1.438       .  S
N1850      H1853   1.045       .  S
N1850      H1854   1.046       .  S
N1852      H1855   1.046       .  S
N1852      H1856   1.044       .  S
C1861      C1862   1.418       .  A
C1861      C1866   1.407       .  A
C1862      C1863   1.410       .  A
C1862      N1867   1.438       .  S
C1863      C1864   1.402       .  A
C1863      H1868   1.084       .  S
C1864      C1869   1.493       .  S
C1864      C1865   1.411       .  A
C1865      C1866   1.410       .  A
C1865      N1870   1.438       .  S
C1866      H1871   1.083       .  S
N1867      H1887   1.045       .  S
N1867      H1888   1.046       .  S
C1869      C1872   1.397       .  A
C1869      C1876   1.411       .  A
N1870      H1885   1.046       .  S
N1870      H1886   1.044       .  S
C1872      C1873   1.403       .  A
C1872      H1877   1.085       .  S
C1873      C1874   1.442       .  A
C1873      N1878   1.433       .  S
C1874      C1875   1.422       .  A
C1875      C1876   1.406       .  A
C1875      H1879   1.084       .  S
C1876      N1880   1.438       .  S
N1878      H1881   1.038       .  S
N1878      H1882   1.041       .  S
N1880      H1883   1.046       .  S
N1880      H1884   1.043       .  S
C1889      C1890   1.417       .  A
C1889      C1894   1.406       .  A
C1890      C1891   1.411       .  A
C1890      N1895   1.437       .  S
C1891      C1892   1.404       .  A
C1891      H1896   1.084       .  S
C1892      C1897   1.487       .  S
C1892      C1893   1.408       .  A
C1893      C1894   1.403       .  A
C1893      N1898   1.439       .  S
C1894      H1899   1.081       .  S
N1895      H1915   1.045       .  S
N1895      H1916   1.046       .  S
C1897      C1900   1.401       .  A
C1897      C1904   1.414       .  A
N1898      H1913   1.046       .  S
N1898      H1914   1.046       .  S
C1900      C1901   1.403       .  A
C1900      H1905   1.084       .  S
C1901      C1902   1.423       .  A
C1901      N1906   1.432       .  S
C1902      C1903   1.418       .  A
C1903      C1904   1.403       .  A
C1903      H1907   1.079       .  S
C1904      N1908   1.439       .  S
N1906      H1909   1.046       .  S
N1906      H1910   1.045       .  S
N1908      H1911   1.046       .  S
N1908      H1912   1.042       .  S
C1917      C1918   1.437       .  A
C1917      C1922   1.421       .  A
C1918      C1919   1.399       .  A
C1918      N1923   1.435       .  S
C1919      C1920   1.398       .  A
C1919      H1924   1.085       .  S
C1920      C1925   1.484       .  S
C1920      C1921   1.409       .  A
C1921      C1922   1.401       .  A
C1921      N1926   1.440       .  S
C1922      H1927   1.077       .  S
N1923      H1943   1.041       .  S
N1923      H1944   1.043       .  S
C1925      C1928   1.399       .  A
C1925      C1932   1.407       .  A
N1926      H1941   1.046       .  S
N1926      H1942   1.043       .  S
C1928      C1929   1.401       .  A
C1928      H1933   1.084       .  S
C1929      C1930   1.418       .  A
C1929      N1934   1.433       .  S
C1930      C1931   1.413       .  A
C1931      C1932   1.408       .  A
C1931      H1935   1.077       .  S
C1932      N1936   1.438       .  S
N1934      H1937   1.045       .  S
N1934      H1938   1.046       .  S
N1936      H1939   1.045       .  S
N1936      H1940   1.046       .  S
C1945      C1946   1.414       .  A
C1945      C1950   1.407       .  A
C1946      C1947   1.413       .  A
C1946      N1951   1.437       .  S
C1947      C1948   1.405       .  A
C1947      H1952   1.083       .  S
C1948      C1953   1.494       .  S
C1948      C1949   1.410       .  A
C1949      C1950   1.407       .  A
C1949      N1954   1.438       .  S
C1950      H1955   1.083       .  S
N1951      H1971   1.045       .  S
N1951      H1972   1.046       .  S
C1953      C1956   1.403       .  A
C1953      C1960   1.407       .  A
N1954      H1969   1.046       .  S
N1954      H1970   1.046       .  S
C1956      C1957   1.413       .  A
C1956      H1961   1.084       .  S
C1957      C1958   1.423       .  A
C1957      N1962   1.437       .  S
C1958      C1959   1.407       .  A
C1959      C1960   1.408       .  A
C1959      H1963   1.069       .  S
C1960      N1964   1.438       .  S
N1962      H1965   1.046       .  S
N1962      H1966   1.046       .  S
N1964      H1967   1.046       .  S
N1964      H1968   1.045       .  S
C1973      C1974   1.411       .  A
C1973      C1978   1.403       .  A
C1974      C1975   1.408       .  A
C1974      N1979   1.432       .  S
C1975      C1976   1.404       .  A
C1975      H1980   1.084       .  S
C1976      C1981   1.489       .  S
C1976      C1977   1.411       .  A
C1977      C1978   1.406       .  A
C1977      N1982   1.438       .  S
C1978      H1983   1.082       .  S
N1979      H1999   1.046       .  S
N1979      H2000   1.045       .  S
C1981      C1984   1.399       .  A
C1981      C1988   1.416       .  A
N1982      H1997   1.045       .  S
N1982      H1998   1.047       .  S
C1984      C1985   1.401       .  A
C1984      H1989   1.084       .  S
C1985      C1986   1.424       .  A
C1985      N1990   1.433       .  S
C1986      C1987   1.417       .  A
C1987      C1988   1.406       .  A
C1987      H1991   1.079       .  S
C1988      N1992   1.439       .  S
N1990      H1993   1.046       .  S
N1990      H1994   1.045       .  S
N1992      H1995   1.046       .  S
N1992      H1996   1.042       .  S
C2001      C2002   1.426       .  A
C2001      C2006   1.419       .  A
C2002      C2003   1.403       .  A
C2002      N2007   1.431       .  S
C2003      C2004   1.396       .  A
C2003      H2008   1.084       .  S
C2004      C2009   1.483       .  S
C2004      C2005   1.406       .  A
C2005      C2006   1.410       .  A
C2005      N2010   1.438       .  S
C2006      H2011   1.079       .  S
N2007      H2027   1.045       .  S
N2007      H2028   1.046       .  S
C2009      C2012   1.400       .  A
C2009      C2016   1.403       .  A
N2010      H2025   1.046       .  S
N2010      H2026   1.045       .  S
C2012      C2013   1.413       .  A
C2012      H2017   1.084       .  S
C2013      C2014   1.424       .  A
C2013      N2018   1.434       .  S
C2014      C2015   1.413       .  A
C2015      C2016   1.400       .  A
C2015      H2019   1.084       .  S
C2016      N2020   1.433       .  S
N2018      H2021   1.046       .  S
N2018      H2022   1.045       .  S
N2020      H2023   1.046       .  S
N2020      H2024   1.046       .  S
C2029      C2030   1.405       .  A
C2029      C2034   1.399       .  A
C2030      C2031   1.400       .  A
C2030      N2035   1.432       .  S
C2031      C2032   1.404       .  A
C2031      H2036   1.084       .  S
C2032      C2037   1.484   1_655  S
C2032      C2033   1.414       .  A
C2033      C2034   1.405       .  A
C2033      N2038   1.438       .  S
C2034      H2039   1.084       .  S
N2035      H2055   1.045       .  S
N2035      H2056   1.045       .  S
C2037      C2040   1.401       .  A
C2037      C2044   1.410       .  A
N2038      H2053   1.046       .  S
N2038      H2054   1.046       .  S
C2040      C2041   1.405       .  A
C2040      H2045   1.084       .  S
C2041      C2042   1.411       .  A
C2041      N2046   1.425       .  S
C2042      C2043   1.410       .  A
C2043      C2044   1.401       .  A
C2043      H2047   1.082       .  S
C2044      N2048   1.439       .  S
N2046      H2049   1.046       .  S
N2046      H2050   1.045       .  S
N2048      H2051   1.046       .  S
N2048      H2052   1.046       .  S
C2057      C2058   1.417       .  A
C2057      C2062   1.405       .  A
C2058      C2059   1.416       .  A
C2058      N2063   1.437       .  S
C2059      C2060   1.406       .  A
C2059      H2064   1.083       .  S
C2060      C2065   1.493       .  S
C2060      C2061   1.410       .  A
C2061      C2062   1.401       .  A
C2061      N2066   1.439       .  S
C2062      H2067   1.080       .  S
N2063      H2083   1.046       .  S
N2063      H2084   1.046       .  S
C2065      C2068   1.398       .  A
C2065      C2072   1.409       .  A
N2066      H2081   1.045       .  S
N2066      H2082   1.046       .  S
C2068      C2069   1.401       .  A
C2068      H2073   1.084       .  S
C2069      C2070   1.427       .  A
C2069      N2074   1.433       .  S
C2070      C2071   1.418       .  A
C2071      C2072   1.413       .  A
C2071      H2075   1.079       .  S
C2072      N2076   1.438       .  S
N2074      H2077   1.045       .  S
N2074      H2078   1.046       .  S
N2076      H2079   1.046       .  S
N2076      H2080   1.045       .  S
C2085      C2086   1.421       .  A
C2085      C2090   1.412       .  A
C2086      C2087   1.413       .  A
C2086      N2091   1.434       .  S
C2087      C2088   1.405       .  A
C2087      H2092   1.084       .  S
C2088      C2093   1.494       .  S
C2088      C2089   1.409       .  A
C2089      C2090   1.401       .  A
C2089      N2094   1.439       .  S
C2090      H2095   1.084       .  S
N2091      H2111   1.045       .  S
N2091      H2112   1.046       .  S
C2093      C2096   1.400       .  A
C2093      C2100   1.408       .  A
N2094      H2109   1.046       .  S
N2094      H2110   1.046       .  S
C2096      C2097   1.405       .  A
C2096      H2101   1.084       .  S
C2097      C2098   1.430       .  A
C2097      N2102   1.431       .  S
C2098      C2099   1.419       .  A
C2099      C2100   1.406       .  A
C2099      H2103   1.084       .  S
C2100      N2104   1.438       .  S
N2102      H2105   1.046       .  S
N2102      H2106   1.046       .  S
N2104      H2107   1.046       .  S
N2104      H2108   1.045       .  S
C2113      C2114   1.412       .  A
C2113      C2118   1.399       .  A
C2114      C2115   1.399       .  A
C2114      N2119   1.433       .  S
C2115      C2116   1.399   1_655  A
C2115      H2120   1.084   1_655  S
C2116      C2121   1.470       .  S
C2116      C2117   1.415   1_455  A
C2117      C2118   1.397       .  A
C2117      N2122   1.439       .  S
C2118      H2123   1.076       .  S
N2119      H2139   1.046       .  S
N2119      H2140   1.045       .  S
C2121      C2124   1.399       .  A
C2121      C2128   1.408       .  A
N2122      H2137   1.046       .  S
N2122      H2138   1.043   1_655  S
C2124      C2125   1.397       .  A
C2124      H2129   1.084       .  S
C2125      C2126   1.410       .  A
C2125      N2130   1.439       .  S
C2126      C2127   1.403       .  A
C2127      C2128   1.405       .  A
C2127      H2131   1.084       .  S
C2128      N2132   1.437       .  S
N2130      H2133   1.045       .  S
N2130      H2134   1.045       .  S
N2132      H2135   1.046       .  S
N2132      H2136   1.046       .  S
C2141      C2142   1.417       .  A
C2141      C2146   1.407       .  A
C2142      C2143   1.412       .  A
C2142      N2147   1.432       .  S
C2143      C2144   1.406       .  A
C2143      H2148   1.083       .  S
C2144      C2149   1.503       .  S
C2144      C2145   1.415       .  A
C2145      C2146   1.404       .  A
C2145      N2150   1.439       .  S
C2146      H2151   1.079       .  S
N2147      H2167   1.046       .  S
N2147      H2168   1.045       .  S
C2149      C2152   1.402       .  A
C2149      C2156   1.416       .  A
N2150      H2165   1.046       .  S
N2150      H2166   1.045       .  S
C2152      C2153   1.395       .  A
C2152      H2157   1.084       .  S
C2153      C2154   1.422       .  A
C2153      N2158   1.431       .  S
C2154      C2155   1.409       .  A
C2155      C2156   1.416       .  A
C2155      H2159   1.083       .  S
C2156      N2160   1.437       .  S
N2158      H2161   1.040       .  S
N2158      H2162   1.043       .  S
N2160      H2163   1.046       .  S
N2160      H2164   1.046       .  S
C2169      C2170   1.421       .  A
C2169      C2174   1.412       .  A
C2170      C2171   1.405       .  A
C2170      N2175   1.433       .  S
C2171      C2172   1.401       .  A
C2171      H2176   1.084       .  S
C2172      C2177   1.499       .  S
C2172      C2173   1.411       .  A
C2173      C2174   1.413       .  A
C2173      N2178   1.437       .  S
C2174      H2179   1.076       .  S
N2175      H2195   1.045       .  S
N2175      H2196   1.046       .  S
C2177      C2180   1.400       .  A
C2177      C2184   1.415       .  A
N2178      H2193   1.045       .  S
N2178      H2194   1.045       .  S
C2180      C2181   1.405       .  A
C2180      H2185   1.084       .  S
C2181      C2182   1.427       .  A
C2181      N2186   1.429       .  S
C2182      C2183   1.420       .  A
C2183      C2184   1.409       .  A
C2183      H2187   1.079       .  S
C2184      N2188   1.439       .  S
N2186      H2189   1.045       .  S
N2186      H2190   1.046       .  S
N2188      H2191   1.045       .  S
N2188      H2192   1.043       .  S
C2197      C2198   1.423       .  A
C2197      C2202   1.414       .  A
C2198      C2199   1.411       .  A
C2198      N2203   1.436       .  S
C2199      C2200   1.399       .  A
C2199      H2204   1.084       .  S
C2200      C2205   1.483       .  S
C2200      C2201   1.403       .  A
C2201      C2202   1.405       .  A
C2201      N2206   1.439       .  S
C2202      H2207   1.072       .  S
N2203      H2223   1.045       .  S
N2203      H2224   1.046       .  S
C2205      C2208   1.394       .  A
C2205      C2212   1.401       .  A
N2206      H2221   1.046       .  S
N2206      H2222   1.045       .  S
C2208      C2209   1.404       .  A
C2208      H2213   1.084       .  S
C2209      C2210   1.444       .  A
C2209      N2214   1.433       .  S
C2210      C2211   1.421       .  A
C2211      C2212   1.404       .  A
C2211      H2215   1.083       .  S
C2212      N2216   1.438       .  S
N2214      H2217   1.041       .  S
N2214      H2218   1.039       .  S
N2216      H2219   1.046       .  S
N2216      H2220   1.045       .  S
C2225      C2226   1.417       .  A
C2225      C2230   1.412       .  A
C2226      C2227   1.403       .  A
C2226      N2231   1.430       .  S
C2227      C2228   1.398       .  A
C2227      H2232   1.084       .  S
C2228      C2233   1.486       .  S
C2228      C2229   1.408       .  A
C2229      C2230   1.412       .  A
C2229      N2234   1.437       .  S
C2230      H2235   1.083       .  S
N2231      H2251   1.046       .  S
N2231      H2252   1.045       .  S
C2233      C2236   1.395       .  A
C2233      C2240   1.409       .  A
N2234      H2249   1.046       .  S
N2234      H2250   1.045       .  S
C2236      C2237   1.400       .  A
C2236      H2241   1.085       .  S
C2237      C2238   1.439       .  A
C2237      N2242   1.433       .  S
C2238      C2239   1.423       .  A
C2239      C2240   1.405       .  A
C2239      H2243   1.078       .  S
C2240      N2244   1.439       .  S
N2242      H2245   1.039       .  S
N2242      H2246   1.041       .  S
N2244      H2247   1.046       .  S
N2244      H2248   1.043       .  S
C2253      C2254   1.440       .  A
C2253      C2258   1.418       .  A
C2254      C2255   1.404       .  A
C2254      N2259   1.437       .  S
C2255      C2256   1.400       .  A
C2255      H2260   1.084       .  S
C2256      C2261   1.493       .  S
C2256      C2257   1.411       .  A
C2257      C2258   1.398       .  A
C2257      N2262   1.440       .  S
C2258      H2263   1.074       .  S
N2259      H2279   1.040       .  S
N2259      H2280   1.042       .  S
C2261      C2264   1.397       .  A
C2261      C2268   1.409       .  A
N2262      H2277   1.045       .  S
N2262      H2278   1.044       .  S
C2264      C2265   1.392       .  A
C2264      H2269   1.084       .  S
C2265      C2266   1.431       .  A
C2265      N2270   1.434       .  S
C2266      C2267   1.416       .  A
C2267      C2268   1.414       .  A
C2267      H2271   1.077       .  S
C2268      N2272   1.437       .  S
N2270      H2273   1.042       .  S
N2270      H2274   1.041       .  S
N2272      H2275   1.045       .  S
N2272      H2276   1.046       .  S
C2281      C2282   1.405       .  A
C2281      C2286   1.404       .  A
C2282      C2283   1.407       .  A
C2282      N2287   1.430       .  S
C2283      C2284   1.406       .  A
C2283      H2288   1.084       .  S
C2284      C2289   1.492       .  S
C2284      C2285   1.413       .  A
C2285      C2286   1.408       .  A
C2285      N2290   1.438       .  S
C2286      H2291   1.084       .  S
N2287      H2307   1.046       .  S
N2287      H2308   1.045       .  S
C2289      C2292   1.406       .  A
C2289      C2296   1.412       .  A
N2290      H2305   1.046       .  S
N2290      H2306   1.045       .  S
C2292      C2293   1.411       .  A
C2292      H2297   1.084       .  S
C2293      C2294   1.410       .  A
C2293      N2298   1.438       .  S
C2294      C2295   1.403       .  A
C2295      C2296   1.407       .  A
C2295      H2299   1.084       .  S
C2296      N2300   1.438       .  S
N2298      H2301   1.046       .  S
N2298      H2302   1.044       .  S
N2300      H2303   1.045       .  S
N2300      H2304   1.046       .  S
C2309      C2310   1.428       .  A
C2309      C2314   1.422       .  A
C2310      C2311   1.400       .  A
C2310      N2315   1.430       .  S
C2311      C2312   1.398       .  A
C2311      H2316   1.085       .  S
C2312      C2317   1.482       .  S
C2312      C2313   1.409       .  A
C2313      C2314   1.404       .  A
C2313      N2318   1.438       .  S
C2314      H2319   1.084       .  S
N2315      H2335   1.046       .  S
N2315      H2336   1.046       .  S
C2317      C2320   1.395       .  A
C2317      C2324   1.408       .  A
N2318      H2333   1.046       .  S
N2318      H2334   1.043       .  S
C2320      C2321   1.396       .  A
C2320      H2325   1.085       .  S
C2321      C2322   1.422       .  A
C2321      N2326   1.433       .  S
C2322      C2323   1.414       .  A
C2323      C2324   1.413       .  A
C2323      H2327   1.078       .  S
C2324      N2328   1.438       .  S
N2326      H2329   1.045       .  S
N2326      H2330   1.046       .  S
N2328      H2331   1.045       .  S
N2328      H2332   1.045       .  S
C2337      C2338   1.434       .  A
C2337      C2342   1.419       .  A
C2338      C2339   1.402       .  A
C2338      N2343   1.432       .  S
C2339      C2340   1.395       .  A
C2339      H2344   1.085       .  S
C2340      C2345   1.486       .  S
C2340      C2341   1.412       .  A
C2341      C2342   1.407       .  A
C2341      N2346   1.438       .  S
C2342      H2347   1.084       .  S
N2343      H2363   1.047       .  S
N2343      H2364   1.045       .  S
C2345      C2348   1.403       .  A
C2345      C2352   1.407       .  A
N2346      H2361   1.046       .  S
N2346      H2362   1.043       .  S
C2348      C2349   1.410       .  A
C2348      H2353   1.084       .  S
C2349      C2350   1.411       .  A
C2349      N2354   1.429       .  S
C2350      C2351   1.411       .  A
C2351      C2352   1.405       .  A
C2351      H2355   1.082       .  S
C2352      N2356   1.438       .  S
N2354      H2357   1.045       .  S
N2354      H2358   1.046       .  S
N2356      H2359   1.046       .  S
N2356      H2360   1.046       .  S
C2365      C2366   1.411       .  A
C2365      C2370   1.402       .  A
C2366      C2367   1.402       .  A
C2366      N2371   1.432       .  S
C2367      C2368   1.400       .  A
C2367      H2372   1.084       .  S
C2368      C2373   1.480   1_565  S
C2368      C2369   1.411       .  A
C2369      C2370   1.405       .  A
C2369      N2374   1.437       .  S
C2370      H2375   1.084       .  S
N2371      H2391   1.046       .  S
N2371      H2392   1.045       .  S
C2373      C2376   1.400       .  A
C2373      C2380   1.410       .  A
N2374      H2389   1.045       .  S
N2374      H2390   1.046       .  S
C2376      C2377   1.399       .  A
C2376      H2381   1.084       .  S
C2377      C2378   1.413       .  A
C2377      N2382   1.438       .  S
C2378      C2379   1.404       .  A
C2379      C2380   1.410       .  A
C2379      H2383   1.084       .  S
C2380      N2384   1.437       .  S
N2382      H2385   1.046       .  S
N2382      H2386   1.045       .  S
N2384      H2387   1.046       .  S
N2384      H2388   1.046       .  S
C2393      C2394   1.426       .  A
C2393      C2398   1.416       .  A
C2394      C2395   1.400       .  A
C2394      N2399   1.432       .  S
C2395      C2396   1.397       .  A
C2395      H2400   1.084       .  S
C2396      C2401   1.490       .  S
C2396      C2397   1.416       .  A
C2397      C2398   1.404       .  A
C2397      N2402   1.438       .  S
C2398      H2403   1.079       .  S
N2399      H2419   1.045       .  S
N2399      H2420   1.046       .  S
C2401      C2404   1.397       .  A
C2401      C2408   1.411       .  A
N2402      H2417   1.046       .  S
N2402      H2418   1.043       .  S
C2404      C2405   1.398       .  A
C2404      H2409   1.084       .  S
C2405      C2406   1.420       .  A
C2405      N2410   1.432       .  S
C2406      C2407   1.412       .  A
C2407      C2408   1.413       .  A
C2407      H2411   1.077       .  S
C2408      N2412   1.437       .  S
N2410      H2413   1.045       .  S
N2410      H2414   1.046       .  S
N2412      H2415   1.045       .  S
N2412      H2416   1.045       .  S
C2421      C2422   1.414       .  A
C2421      C2426   1.404       .  A
C2422      C2423   1.401       .  A
C2422      N2427   1.437       .  S
C2423      C2424   1.401       .  A
C2423      H2428   1.084       .  S
C2424      C2429   1.490       .  S
C2424      C2425   1.413       .  A
C2425      C2426   1.413       .  A
C2425      N2430   1.437       .  S
C2426      H2431   1.084       .  S
N2427      H2447   1.046       .  S
N2427      H2448   1.046       .  S
C2429      C2432   1.400       .  A
C2429      C2436   1.404       .  A
N2430      H2445   1.046       .  S
N2430      H2446   1.046       .  S
C2432      C2433   1.413       .  A
C2432      H2437   1.083       .  S
C2433      C2434   1.432       .  A
C2433      N2438   1.438       .  S
C2434      C2435   1.422       .  A
C2435      C2436   1.401       .  A
C2435      H2439   1.075       .  S
C2436      N2440   1.440       .  S
N2438      H2441   1.046       .  S
N2438      H2442   1.043       .  S
N2440      H2443   1.046       .  S
N2440      H2444   1.045       .  S
C2449      C2450   1.412       .  A
C2449      C2454   1.401       .  A
C2450      C2451   1.399       .  A
C2450      N2455   1.439       .  S
C2451      C2452   1.401       .  A
C2451      H2456   1.084       .  S
C2452      C2457   1.481   1_565  S
C2452      C2453   1.412       .  A
C2453      C2454   1.408       .  A
C2453      N2458   1.437       .  S
C2454      H2459   1.083       .  S
N2455      H2475   1.046       .  S
N2455      H2476   1.045       .  S
C2457      C2460   1.401       .  A
C2457      C2464   1.414       .  A
N2458      H2473   1.046       .  S
N2458      H2474   1.045       .  S
C2460      C2461   1.400       .  A
C2460      H2465   1.084       .  S
C2461      C2462   1.409       .  A
C2461      N2466   1.433       .  S
C2462      C2463   1.400       .  A
C2463      C2464   1.406       .  A
C2463      H2467   1.084       .  S
C2464      N2468   1.437       .  S
N2466      H2469   1.046       .  S
N2466      H2470   1.046       .  S
N2468      H2471   1.046       .  S
N2468      H2472   1.045       .  S
C2477      C2478   1.413       .  A
C2477      C2482   1.402       .  A
C2478      C2479   1.407       .  A
C2478      N2483   1.438       .  S
C2479      C2480   1.404       .  A
C2479      H2484   1.084       .  S
C2480      C2485   1.496       .  S
C2480      C2481   1.415       .  A
C2481      C2482   1.412       .  A
C2481      N2486   1.437       .  S
C2482      H2487   1.084       .  S
N2483      H2503   1.045       .  S
N2483      H2504   1.046       .  S
C2485      C2488   1.403       .  A
C2485      C2492   1.416       .  A
N2486      H2501   1.045       .  S
N2486      H2502   1.046       .  S
C2488      C2489   1.402       .  A
C2488      H2493   1.084       .  S
C2489      C2490   1.410       .  A
C2489      N2494   1.432       .  S
C2490      C2491   1.403       .  A
C2491      C2492   1.413       .  A
C2491      H2495   1.084       .  S
C2492      N2496   1.437       .  S
N2494      H2497   1.045       .  S
N2494      H2498   1.046       .  S
N2496      H2499   1.046       .  S
N2496      H2500   1.046       .  S
C2505      C2506   1.417       .  A
C2505      C2510   1.410       .  A
C2506      C2507   1.409       .  A
C2506      N2511   1.431       .  S
C2507      C2508   1.402       .  A
C2507      H2512   1.084       .  S
C2508      C2513   1.496       .  S
C2508      C2509   1.417       .  A
C2509      C2510   1.409       .  A
C2509      N2514   1.438       .  S
C2510      H2515   1.083       .  S
N2511      H2531   1.045       .  S
N2511      H2532   1.046       .  S
C2513      C2516   1.399       .  A
C2513      C2520   1.413       .  A
N2514      H2529   1.045       .  S
N2514      H2530   1.043       .  S
C2516      C2517   1.408       .  A
C2516      H2521   1.084       .  S
C2517      C2518   1.429       .  A
C2517      N2522   1.434       .  S
C2518      C2519   1.422       .  A
C2519      C2520   1.408       .  A
C2519      H2523   1.077       .  S
C2520      N2524   1.439       .  S
N2522      H2525   1.046       .  S
N2522      H2526   1.046       .  S
N2524      H2527   1.045       .  S
N2524      H2528   1.043       .  S
C2533      C2534   1.421       .  A
C2533      C2538   1.412       .  A
C2534      C2535   1.412       .  A
C2534      N2539   1.428       .  S
C2535      C2536   1.405       .  A
C2535      H2540   1.084       .  S
C2536      C2541   1.497       .  S
C2536      C2537   1.410       .  A
C2537      C2538   1.403       .  A
C2537      N2542   1.439       .  S
C2538      H2543   1.084       .  S
N2539      H2559   1.046       .  S
N2539      H2560   1.045       .  S
C2541      C2544   1.400       .  A
C2541      C2548   1.408       .  A
N2542      H2557   1.045       .  S
N2542      H2558   1.046       .  S
C2544      C2545   1.407       .  A
C2544      H2549   1.084       .  S
C2545      C2546   1.430       .  A
C2545      N2550   1.431       .  S
C2546      C2547   1.420       .  A
C2547      C2548   1.407       .  A
C2547      H2551   1.082       .  S
C2548      N2552   1.438       .  S
N2550      H2553   1.045       .  S
N2550      H2554   1.046       .  S
N2552      H2555   1.046       .  S
N2552      H2556   1.046       .  S
