geometry optimzed in LAMMPS
_audit_creation_date              2020-11-30 
_audit_creation_method            'lammps2cif' 
_symmetry_space_group_name_H-M    'P1' 
_symmetry_Int_Tables_number       1 
_symmetry_cell_setting            triclinic 
loop_ 
_symmetry_equiv_pos_as_xyz 
  x,y,z 
_cell_length_a                    41.482283 
_cell_length_b                    40.74462502653464 
_cell_length_c                    41.25591223788162 
_cell_angle_alpha                 90.54130411966014 
_cell_angle_beta                  88.53739392321324 
_cell_angle_gamma                 89.68896876494237 
loop_ 
_atom_site_label 
_atom_site_type_symbol 
_atom_site_fract_x 
_atom_site_fract_y 
_atom_site_fract_z 
_atom_site_charge 
N1          N  0.23994075  0.88178401  0.99482648    -0.03000
C2          C  0.25170998  0.86620243  0.02121394    -0.00400
C3          C  0.27676064  0.84529935  0.01228334    -0.23300
C4          C  0.27987514  0.84666517  0.97928950    -0.23500
C5          C  0.25663257  0.86832187  0.96899436    -0.00500
H6          H  0.28870036  0.82784131  0.02761549     0.13300
H7          H  0.29459123  0.83035611  0.96416491     0.13300
N8          N  0.59842198  0.08187138  0.00087031    -0.03000
C9          C  0.58576426  0.09356700  0.02971714    -0.00400
C10         C  0.56409027  0.11874674  0.02424436    -0.23300
C11         C  0.56501147  0.12464011  0.99174258    -0.23500
C12         C  0.58687842  0.10264010  0.97799391    -0.00500
H13         H  0.55271072  0.13467628  0.04236479     0.13300
H14         H  0.55382037  0.14530003  0.98005737     0.13300
N15         N  0.84071505  0.97226359  0.33024877    -0.03000
C16         C  0.83079150  0.94602176  0.34822041    -0.00400
C17         C  0.81748974  0.95651603  0.37758933    -0.23300
C18         C  0.81725696  0.99007057  0.37724080    -0.23500
C19         C  0.83057421  0.99916252  0.34773250    -0.00500
H20         H  0.80455914  0.94153037  0.39506016     0.13300
H21         H  0.80454090  0.00588387  0.39455158     0.13300
N22         N  0.01549104  0.98304987  0.67080763    -0.03000
C23         C  0.03147154  0.96094282  0.65102102    -0.00400
C24         C  0.05147768  0.97703746  0.62914961    -0.23300
C25         C  0.04942511  0.00971842  0.63657377    -0.23500
C26         C  0.02822828  0.01279072  0.66275456    -0.00500
H27         H  0.06931298  0.96591373  0.61281728     0.13300
H28         H  0.06542698  0.02847835  0.62719686     0.13300
N29         N  0.91502578  0.66805510  0.08209514    -0.03000
C30         C  0.94054957  0.65347579  0.09682509    -0.00400
C31         C  0.92989237  0.62836144  0.11666985    -0.23300
C32         C  0.89710483  0.62796455  0.11534395    -0.23500
C33         C  0.88838200  0.65286297  0.09489017    -0.00500
H34         H  0.94400246  0.61449608  0.13355277     0.13300
H35         H  0.88114986  0.61420052  0.13126250     0.13300
N36         N  0.91234763  0.30279071  0.91386482    -0.03000
C37         C  0.88867322  0.31824518  0.89721595    -0.00400
C38         C  0.90119168  0.34438185  0.88001134    -0.23300
C39         C  0.93370278  0.34377854  0.88394563    -0.23500
C40         C  0.94037991  0.31699733  0.90304508    -0.00500
H41         H  0.88892640  0.35917839  0.86244933     0.13300
H42         H  0.95089267  0.35766448  0.86950162     0.13300
N43         N  0.59263392  0.88899996  0.01315275    -0.03000
C44         C  0.57761752  0.87297164  0.98854871    -0.00400
C45         C  0.55452422  0.85186799  0.00116194    -0.23300
C46         C  0.55638201  0.85355511  0.03413165    -0.23500
C47         C  0.58073859  0.87528639  0.04101197    -0.00500
H48         H  0.54082993  0.83372868  0.98814912     0.13300
H49         H  0.54494701  0.83664952  0.05088641     0.13300
N50         N  0.25898724  0.07186121  0.99828078    -0.03000
C51         C  0.26908394  0.07895706  0.96734221    -0.00400
C52         C  0.29716973  0.09700023  0.96774642    -0.23300
C53         C  0.30326906  0.10388573  0.99942913    -0.23500
C54         C  0.27896366  0.08945699  0.01775344    -0.00500
H55         H  0.30870841  0.10886257  0.94717265     0.13300
H56         H  0.32097244  0.12128577  0.00763075     0.13300
N57         N  0.82678551  0.98522534  0.66778921    -0.03000
C58         C  0.80787869  0.00876958  0.65435465    -0.00400
C59         C  0.78982906  0.99548449  0.62989055    -0.23300
C60         C  0.79614753  0.96251071  0.62936051    -0.23500
C61         C  0.81759156  0.95638237  0.65373592    -0.00500
H62         H  0.77077004  0.00751549  0.61697238     0.13300
H63         H  0.78221693  0.94437012  0.61654501     0.13300
N64         N  0.02528209  0.98073887  0.30755435    -0.03000
C65         C  0.04434754  0.00396544  0.32134360    -0.00400
C66         C  0.06282935  0.99051618  0.34520739    -0.23300
C67         C  0.05667374  0.95765166  0.34507572    -0.23500
C68         C  0.03495040  0.95180261  0.32080193    -0.00500
H69         H  0.08178533  0.00248035  0.35836946     0.13300
H70         H  0.07073571  0.93941965  0.35749676     0.13300
N71         N  0.91798453  0.65590507  0.89305404    -0.03000
C72         C  0.88845067  0.64444429  0.88465719    -0.00400
C73         C  0.89230265  0.61897962  0.86233173    -0.23300
C74         C  0.92443546  0.61685992  0.85425987    -0.23500
C75         C  0.93953104  0.64051663  0.87245492    -0.00500
H76         H  0.87338919  0.60746248  0.84871717     0.13300
H77         H  0.93477454  0.60272063  0.83419763     0.13300
N78         N  0.91784354  0.30576470  0.10425275    -0.03000
C79         C  0.94188370  0.31987521  0.12169371    -0.00400
C80         C  0.92934896  0.34341849  0.14284862    -0.23300
C81         C  0.89663726  0.34275111  0.14006890    -0.23500
C82         C  0.88990875  0.31883760  0.11732356    -0.00500
H83         H  0.94213842  0.35640098  0.16153924     0.13300
H84         H  0.87943714  0.35479279  0.15646754     0.13300
N85         N  0.32626660  0.47942939  0.82633811    -0.03000
C86         C  0.31396207  0.45645493  0.84713720    -0.00400
C87         C  0.29284942  0.47106115  0.86950993    -0.23300
C88         C  0.29023997  0.50332767  0.86130428    -0.23500
C89         C  0.31007681  0.50769057  0.83439465    -0.00500
H90         H  0.27722535  0.45866062  0.88681881     0.13300
H91         H  0.27279148  0.52069948  0.87140191     0.13300
N92         N  0.34366701  0.47582369  0.15599519    -0.03000
C93         C  0.32318988  0.49790302  0.14255006    -0.00400
C94         C  0.30652825  0.48326932  0.11774599    -0.23300
C95         C  0.31594532  0.45109914  0.11658513    -0.23500
C96         C  0.33740927  0.44650800  0.14127523    -0.00500
H97         H  0.28686833  0.49360558  0.10438384     0.13300
H98         H  0.30386760  0.43199703  0.10317636     0.13300
N99         N  0.14316989  0.39797204  0.50325706    -0.03000
C100        C  0.16199199  0.38876677  0.47735789    -0.00400
C101        C  0.19194267  0.37851713  0.48711693    -0.23300
C102        C  0.19112507  0.37971744  0.52028093    -0.23500
C103        C  0.16061461  0.39058733  0.52970845    -0.00500
H104        H  0.21046528  0.36667294  0.47212539     0.13300
H105        H  0.20902612  0.36901408  0.53569217     0.13300
Zn106      Zn  0.17317503  0.24987209  0.80274318     1.49700
Zn107      Zn  0.17566178  0.18492547  0.75668006     1.49400
Zn108      Zn  0.12481494  0.24407955  0.74183827     1.49100
Zn109      Zn  0.20089456  0.25346914  0.73104054     1.49500
O110        O  0.16819823  0.23282153  0.75826445    -1.83600
O111        O  0.18476690  0.21267864  0.83248144    -0.74300
O112        O  0.13456634  0.16232403  0.74244582    -0.74100
O113        O  0.09619444  0.26079370  0.77984969    -0.73600
O114        O  0.18716708  0.16760443  0.80165034    -0.74300
O115        O  0.13045707  0.26773679  0.82007848    -0.73900
O116        O  0.10274211  0.20267825  0.72573229    -0.74500
O117        O  0.18050921  0.28261825  0.69941839    -0.73900
O118        O  0.21211015  0.17283583  0.72350142    -0.74600
O119        O  0.12729656  0.27914547  0.70514528    -0.74000
O120        O  0.22918667  0.22135708  0.70646447    -0.74500
O121        O  0.22844442  0.28432142  0.75568671    -0.74400
O122        O  0.20760392  0.28601761  0.80571304    -0.74200
C123        C  0.18929102  0.18180346  0.82927611     0.77600
C124        C  0.10855299  0.17216643  0.72963555     0.78100
C125        C  0.10208609  0.26921952  0.80900566     0.77100
C126        C  0.15243053  0.29167911  0.69166832     0.77500
C127        C  0.23096017  0.19018992  0.70568404     0.78600
C128        C  0.22763535  0.29640193  0.78419912     0.77600
N129        N  0.76916876  0.38766652  0.49643084    -0.03000
C130        C  0.78115379  0.37859300  0.52558133    -0.00400
C131        C  0.80556689  0.35566698  0.52102838    -0.23300
C132        C  0.80763324  0.34868285  0.48861564    -0.23500
C133        C  0.78462348  0.36775355  0.47407094    -0.00500
H134        H  0.81698302  0.34160012  0.53973889     0.13300
H135        H  0.82155224  0.32883310  0.47750822     0.13300
N136        N  0.41728449  0.14874299  0.60063266    -0.03000
C137        C  0.39067395  0.13236110  0.61204829    -0.00400
C138        C  0.40004918  0.10854075  0.63385004    -0.23300
C139        C  0.43214979  0.11277792  0.63890300    -0.23500
C140        C  0.44171248  0.13848039  0.61962560    -0.00500
H141        H  0.38447142  0.09384594  0.64925605     0.13300
H142        H  0.44573004  0.10162088  0.65800727     0.13300
Zn143      Zn  0.69534856  0.21256341  0.77157860     1.49700
Zn144      Zn  0.68445299  0.28735427  0.74646960     1.49400
Zn145      Zn  0.67026384  0.22765724  0.70015853     1.49100
Zn146      Zn  0.62332296  0.24070459  0.76085057     1.49500
O147        O  0.66845922  0.24202268  0.74520746    -1.83600
O148        O  0.72765499  0.23964674  0.79704518    -0.74300
O149        O  0.70066644  0.30382025  0.70202576    -0.74100
O150        O  0.70327260  0.19210183  0.69317539    -0.73600
O151        O  0.71935469  0.29058085  0.77985022    -0.74300
O152        O  0.71994974  0.17941425  0.74227197    -0.73900
O153        O  0.68206203  0.26449292  0.67016179    -0.74500
O154        O  0.59345718  0.22330817  0.72623346    -0.73900
O155        O  0.64822480  0.31843611  0.76026830    -0.74600
O156        O  0.62796944  0.20921611  0.68638002    -0.74000
O157        O  0.60722423  0.28605744  0.77410835    -0.74500
O158        O  0.61896880  0.20951169  0.79872537    -0.74400
O159        O  0.66752217  0.18740450  0.80484409    -0.74200
C160        C  0.73387324  0.27031225  0.79797468     0.77600
C161        C  0.69518461  0.29242291  0.67378062     0.78100
C162        C  0.72056224  0.17479499  0.71157047     0.77100
C163        C  0.59952087  0.21016346  0.69858771     0.77500
C164        C  0.61941561  0.31454942  0.77101963     0.78600
C165        C  0.63765474  0.18958256  0.81297185     0.77600
N166        N  0.07799832  0.57993681  0.49046360    -0.03000
C167        C  0.06542070  0.59560313  0.51717845    -0.00400
C168        C  0.03992365  0.61536179  0.50872781    -0.23300
C169        C  0.03683226  0.61203945  0.47580551    -0.23500
C170        C  0.06078451  0.59051120  0.46490124    -0.00500
H171        H  0.02721981  0.63296608  0.52423740     0.13300
H172        H  0.02122947  0.62674775  0.46105008     0.13300
Zn173      Zn  0.13979098  0.75358207  0.76791083     1.49700
Zn174      Zn  0.16901984  0.75053329  0.69562120     1.49400
Zn175      Zn  0.21391590  0.73933973  0.75691866     1.49100
Zn176      Zn  0.16259980  0.68390563  0.73750833     1.49500
O177        O  0.17129523  0.73161404  0.73921998    -1.83600
O178        O  0.11640030  0.78935256  0.74501914    -0.74300
O179        O  0.21397986  0.76320816  0.67858120    -0.74100
O180        O  0.21278177  0.77282601  0.79454911    -0.73600
O181        O  0.13772711  0.78980999  0.69505197    -0.74300
O182        O  0.16024577  0.77571838  0.80573312    -0.73900
O183        O  0.24462576  0.75310763  0.72087804    -0.74500
O184        O  0.20200244  0.65773721  0.75212771    -0.73900
O185        O  0.15326471  0.71592518  0.66441704    -0.74600
O186        O  0.23260415  0.69682455  0.77318820    -0.74000
O187        O  0.14995780  0.66927936  0.69187226    -0.74500
O188        O  0.12469716  0.67295128  0.76794189    -0.74400
O189        O  0.10779929  0.72176555  0.78602249    -0.74200
C190        C  0.11833695  0.80162542  0.71679719     0.77600
C191        C  0.24163631  0.76130854  0.69134382     0.78100
C192        C  0.18910682  0.78298393  0.81242361     0.77100
C193        C  0.22677379  0.66660017  0.76772403     0.77500
C194        C  0.14725200  0.68526787  0.66559783     0.78600
C195        C  0.10500609  0.69069772  0.78482771     0.77600
N196        N  0.51322944  0.48885544  0.83902155    -0.03000
C197        C  0.53059622  0.51126334  0.85612845    -0.00400
C198        C  0.54521543  0.49664861  0.88202732    -0.23300
C199        C  0.53846715  0.46400564  0.88011103    -0.23500
C200        C  0.52035432  0.45941212  0.85280400    -0.00500
H201        H  0.56212340  0.50777947  0.89831340     0.13300
H202        H  0.55008221  0.44506676  0.89396542     0.13300
N203        N  0.42017122  0.81697735  0.58842613    -0.03000
C204        C  0.39172607  0.83211780  0.59690895    -0.00400
C205        C  0.39688918  0.85724959  0.61884955    -0.23300
C206        C  0.42871972  0.85611728  0.62634929    -0.23500
C207        C  0.44239350  0.83061364  0.60835555    -0.00500
H208        H  0.37851749  0.87108429  0.63226098     0.13300
H209        H  0.43950756  0.86967429  0.64593108     0.13300
N210        N  0.75215859  0.58020839  0.50451229    -0.03000
C211        C  0.76137322  0.59651438  0.47707711    -0.00400
C212        C  0.78316649  0.62092328  0.48398184    -0.23300
C213        C  0.78701534  0.62068309  0.51666798    -0.23500
C214        C  0.76729802  0.59633713  0.52903046    -0.00500
H215        H  0.79267893  0.63920925  0.46750316     0.13300
H216        H  0.79955301  0.63919938  0.53041262     0.13300
Zn217      Zn  0.63696562  0.71561804  0.72415943     1.49700
Zn218      Zn  0.71149435  0.73528357  0.73837608     1.49400
Zn219      Zn  0.65312209  0.78690262  0.75091550     1.49100
Zn220      Zn  0.65856489  0.72450104  0.79717067     1.49500
O221        O  0.66546439  0.74048769  0.75265664    -1.83600
O222        O  0.66331807  0.69414269  0.68874936    -0.74300
O223        O  0.73175599  0.78013404  0.72666008    -0.74100
O224        O  0.61781006  0.79434639  0.71858272    -0.73600
O225        O  0.71495531  0.70322435  0.69892133    -0.74300
O226        O  0.60323810  0.74442541  0.70306321    -0.73900
O227        O  0.69154042  0.81465841  0.73908683    -0.74500
O228        O  0.63851088  0.76015388  0.82616949    -0.73900
O229        O  0.73758700  0.71733664  0.77611961    -0.74600
O230        O  0.63572177  0.80372303  0.79420765    -0.74000
O231        O  0.70097302  0.71026101  0.81588747    -0.74500
O232        O  0.62925280  0.68457502  0.79860095    -0.74400
O233        O  0.61467989  0.67823042  0.74758838    -0.74200
C234        C  0.69312967  0.68989936  0.68182096     0.77600
C235        C  0.72067425  0.80937452  0.72984468     0.78100
C236        C  0.59953643  0.77550071  0.70246602     0.77100
C237        C  0.63112456  0.79013402  0.82155619     0.77500
C238        C  0.72999186  0.70869101  0.80502228     0.78600
C239        C  0.61405425  0.66885921  0.77696383     0.77600
N240        N  0.41238884  0.14345036  0.40920749    -0.03000
C241        C  0.43948536  0.13019575  0.39456108    -0.00400
C242        C  0.43118118  0.10647449  0.37210915    -0.23300
C243        C  0.39829749  0.10602992  0.37151813    -0.23500
C244        C  0.38718957  0.12948462  0.39348564    -0.00500
H245        H  0.44713752  0.09394933  0.35483761     0.13300
H246        H  0.38422104  0.09353345  0.35347463     0.13300
Zn247      Zn  0.66870692  0.23259346  0.21865448     1.49700
Zn248      Zn  0.65867151  0.17177108  0.26651711     1.49400
Zn249      Zn  0.71707911  0.22053026  0.27818191     1.49100
Zn250      Zn  0.64400035  0.24398857  0.29341229     1.49500
O251        O  0.67211290  0.21753763  0.26398170    -1.83600
O252        O  0.65052620  0.19610774  0.19002438    -0.74300
O253        O  0.69665408  0.14252151  0.27545689    -0.74100
O254        O  0.74562572  0.23324478  0.24007919    -0.73600
O255        O  0.64018394  0.15558445  0.22445061    -0.74300
O256        O  0.71338232  0.24385727  0.19916080    -0.73900
O257        O  0.73529368  0.17602216  0.29148797    -0.74500
O258        O  0.67044698  0.26815081  0.32625878    -0.73900
O259        O  0.62457149  0.16562665  0.30171952    -0.74600
O260        O  0.72146132  0.25467477  0.31470661    -0.74000
O261        O  0.61087636  0.21596100  0.31811808    -0.74500
O262        O  0.62128283  0.27946884  0.26848773    -0.74400
O263        O  0.63849950  0.27272652  0.21723411    -0.74200
C264        C  0.63982903  0.16742490  0.19602809     0.77600
C265        C  0.72490472  0.14713960  0.28595775     0.78100
C266        C  0.74157123  0.24153641  0.21074026     0.77100
C267        C  0.70045144  0.27098960  0.33148610     0.77500
C268        C  0.60706354  0.18491840  0.31927836     0.78600
C269        C  0.62170287  0.28825935  0.23889420     0.77600
N270        N  0.41160287  0.80711305  0.39772896    -0.03000
C271        C  0.43748370  0.81880288  0.38017593    -0.00400
C272        C  0.42760882  0.83646698  0.35381225    -0.23300
C273        C  0.39482190  0.83533320  0.35411830    -0.23500
C274        C  0.38534056  0.81695781  0.38061738    -0.00500
H275        H  0.44281757  0.84685710  0.33486370     0.13300
H276        H  0.37953270  0.84439834  0.33525041     0.13300
N277        N  0.53049543  0.46943250  0.17058563    -0.03000
C278        C  0.54370562  0.44255384  0.15522316    -0.00400
C279        C  0.56536975  0.45197640  0.13112869    -0.23300
C280        C  0.56723680  0.48541436  0.13263770    -0.23500
C281        C  0.54655676  0.49557601  0.15760289    -0.00500
H282        H  0.58145530  0.43605771  0.11704286     0.13300
H283        H  0.58488139  0.50014140  0.11970817     0.13300
Zn284      Zn  0.65254815  0.77340276  0.26850949     1.49700
Zn285      Zn  0.71592376  0.72913564  0.26986657     1.49400
Zn286      Zn  0.64539001  0.69620299  0.28092125     1.49100
Zn287      Zn  0.66852829  0.72156201  0.21053525     1.49500
O288        O  0.67054956  0.72995893  0.25748673    -1.83600
O289        O  0.68746321  0.80417342  0.28358464    -0.74300
O290        O  0.72267042  0.69262370  0.30188795    -0.74100
O291        O  0.60978520  0.71684090  0.30940247    -0.73600
O292        O  0.73107921  0.77298470  0.28815685    -0.74300
O293        O  0.61659028  0.77043201  0.30282973    -0.73900
O294        O  0.67436787  0.67008318  0.31000502    -0.74500
O295        O  0.63977809  0.68254905  0.20107084    -0.73900
O296        O  0.74520034  0.72113064  0.23069975    -0.74600
O297        O  0.62443986  0.66429124  0.24959598    -0.74000
O298        O  0.71267835  0.71306235  0.18951850    -0.74500
O299        O  0.65073786  0.76155190  0.18852608    -0.74400
O300        O  0.63471220  0.79502515  0.22878852    -0.74200
C301        C  0.71718508  0.80094286  0.29012621     0.77600
C302        C  0.70442018  0.67145495  0.31559731     0.78100
C303        C  0.60161490  0.74646128  0.31590691     0.77100
C304        C  0.62423765  0.66215144  0.21872555     0.77500
C305        C  0.74090589  0.71517433  0.20075782     0.78600
C306        C  0.63762260  0.78821735  0.19865148     0.77600
Zn307      Zn  0.19707613  0.68641098  0.26333775     1.49700
Zn308      Zn  0.17271378  0.71086269  0.19410631     1.49400
Zn309      Zn  0.12343045  0.71036541  0.25512091     1.49100
Zn310      Zn  0.18300571  0.76236624  0.25264789     1.49500
O311        O  0.16886851  0.71752290  0.24135111    -1.83600
O312        O  0.22095852  0.65687746  0.23109336    -0.74300
O313        O  0.13006633  0.69803285  0.17432458    -0.74100
O314        O  0.12057901  0.67580281  0.29114345    -0.73600
O315        O  0.20571357  0.67489636  0.18314279    -0.74300
O316        O  0.17145536  0.65923463  0.29556542    -0.73900
O317        O  0.09589944  0.69633815  0.21670562    -0.74500
O318        O  0.14389340  0.78942106  0.26744769    -0.73900
O319        O  0.18730891  0.75259840  0.17233854    -0.74600
O320        O  0.10380843  0.75335917  0.27194713    -0.74000
O321        O  0.20124528  0.78567566  0.21281110    -0.74500
O322        O  0.21798561  0.76240465  0.28742666    -0.74400
O323        O  0.23079901  0.70955407  0.28960118    -0.74200
C324        C  0.22251518  0.65555665  0.20020891     0.77600
C325        C  0.10190161  0.69323709  0.18631498     0.78100
C326        C  0.14186010  0.65805274  0.30461330     0.77100
C327        C  0.11448169  0.78259065  0.27409109     0.77500
C328        C  0.19910338  0.77944709  0.18259741     0.78600
C329        C  0.23559851  0.73923327  0.29809338     0.77600
Zn330      Zn  0.22525437  0.23198387  0.22727027     1.49700
Zn331      Zn  0.16828575  0.28479819  0.23804444     1.49400
Zn332      Zn  0.15082736  0.21223877  0.21647384     1.49100
Zn333      Zn  0.17570144  0.22654725  0.28883337     1.49500
O334        O  0.18014580  0.23866935  0.24267378    -1.83600
O335        O  0.24589657  0.27494732  0.21295787    -0.74300
O336        O  0.13023203  0.29122846  0.20885440    -0.74100
O337        O  0.17639115  0.18703005  0.18191800    -0.73600
O338        O  0.20601715  0.31074462  0.22193928    -0.74300
O339        O  0.22797785  0.19845745  0.18983290    -0.73900
O340        O  0.11688293  0.24051674  0.19463514    -0.74500
O341        O  0.14329579  0.19020442  0.29430270    -0.73900
O342        O  0.15828235  0.30576683  0.28120921    -0.74600
O343        O  0.12735620  0.17880548  0.24441217    -0.74000
O344        O  0.16186353  0.26565385  0.31704988    -0.74500
O345        O  0.21859090  0.21099372  0.30670994    -0.74400
O346        O  0.25251141  0.21694293  0.26458393    -0.74200
C347        C  0.23517552  0.30431994  0.21382081     0.77600
C348        C  0.11200554  0.27145596  0.19381073     0.78100
C349        C  0.20621175  0.18325451  0.17434295     0.77100
C350        C  0.12657863  0.17328802  0.27479955     0.77500
C351        C  0.15728848  0.29575920  0.31030001     0.78600
C352        C  0.24704112  0.20986213  0.29427446     0.77600
C353        C  0.55092447  0.52779945  0.17417374    -0.04700
C354        C  0.55116850  0.52956556  0.20817835    -0.04700
C355        C  0.56376267  0.55711630  0.22391658    -0.22800
C356        C  0.57642375  0.58336948  0.20589351     0.19400
C357        C  0.57449124  0.58265274  0.17176052     0.16600
C358        C  0.56135060  0.55515936  0.15618904    -0.17900
C359        C  0.58726874  0.60867215  0.15362526    -0.19700
C360        C  0.60290100  0.63459712  0.16901149    -0.12300
C361        C  0.60590857  0.63528252  0.20291162     0.04400
C362        C  0.59196719  0.60972657  0.22128017    -0.24400
H363        H  0.54363920  0.50873292  0.22256826     0.09500
H364        H  0.56488396  0.55724746  0.25010904     0.13100
H365        H  0.56110377  0.55418543  0.12993951     0.13000
H366        H  0.58590562  0.60857798  0.12744243     0.12800
H367        H  0.61304712  0.65397573  0.15420336     0.13300
H368        H  0.59396989  0.60983241  0.24740658     0.15300
C369        C  0.26286548  0.74658826  0.31997583    -0.04700
C370        C  0.28741518  0.72306555  0.32412658    -0.04700
C371        C  0.31488640  0.73056950  0.34172355    -0.22800
C372        C  0.31842433  0.76174157  0.35582094     0.19400
C373        C  0.29309865  0.78493657  0.35364007     0.16600
C374        C  0.26553361  0.77727522  0.33571351    -0.17900
C375        C  0.29665955  0.81611026  0.36779048    -0.19700
C376        C  0.32602589  0.82519509  0.38118978    -0.12300
C377        C  0.35227126  0.80321752  0.38118224     0.04400
C378        C  0.34774926  0.77092290  0.36984065    -0.24400
H379        H  0.28602520  0.69911098  0.31264627     0.09500
H380        H  0.33388249  0.71235466  0.34330254     0.13100
H381        H  0.24671165  0.79553368  0.33316722     0.13000
H382        H  0.27750849  0.83419337  0.36658957     0.12800
H383        H  0.32921666  0.85042038  0.38896606     0.13300
H384        H  0.36809554  0.75410886  0.36881077     0.15300
C385        C  0.47189082  0.80918139  0.38254612    -0.04700
C386        C  0.49534028  0.83373439  0.37899479    -0.04700
C387        C  0.52695970  0.82580489  0.36942018    -0.22800
C388        C  0.53558652  0.79313117  0.36263820     0.19400
C389        C  0.51300447  0.76790455  0.36879783     0.16600
C390        C  0.48127225  0.77607028  0.37926801    -0.17900
C391        C  0.52181858  0.73525791  0.36173962    -0.19700
C392        C  0.55155714  0.72801924  0.34630926    -0.12300
C393        C  0.57311075  0.75326366  0.33772020     0.04400
C394        C  0.56550157  0.78564148  0.34747473    -0.24400
H395        H  0.48849876  0.85937931  0.38124144     0.09500
H396        H  0.54400957  0.84543002  0.36514674     0.13100
H397        H  0.46320242  0.75706018  0.38145919     0.13000
H398        H  0.50506879  0.71550117  0.36658695     0.12800
H399        H  0.55689734  0.70278060  0.33955692     0.13300
H400        H  0.58200365  0.80534094  0.34152969     0.15300
C401        C  0.60300509  0.31784581  0.22988871    -0.04700
C402        C  0.60025454  0.34464103  0.25156030    -0.04700
C403        C  0.58503030  0.37376866  0.24245593    -0.22800
C404        C  0.57174471  0.37647971  0.21165703     0.19400
C405        C  0.57289557  0.34910652  0.19029763     0.16600
C406        C  0.58876320  0.32009210  0.19941509    -0.17900
C407        C  0.55934092  0.35168975  0.15961983    -0.19700
C408        C  0.54682698  0.38168097  0.14933554    -0.12300
C409        C  0.54724651  0.40954296  0.16961044     0.04400
C410        C  0.55887305  0.40652547  0.20120541    -0.24400
H411        H  0.61096973  0.34347619  0.27520510     0.09500
H412        H  0.58428511  0.39438879  0.25922460     0.13100
H413        H  0.59042050  0.29945365  0.18269265     0.13000
H414        H  0.55977369  0.33094786  0.14301067     0.12800
H415        H  0.53850884  0.38367050  0.12474492     0.13300
H416        H  0.55999562  0.42808700  0.21671784     0.15300
C417        C  0.58116881  0.17054323  0.34036182    -0.04700
C418        C  0.57940743  0.13624893  0.34374399    -0.04700
C419        C  0.55303684  0.12173245  0.35953267    -0.22800
C420        C  0.52756994  0.14114479  0.37199426     0.19400
C421        C  0.52970153  0.17569808  0.37055073     0.16600
C422        C  0.55673160  0.19025704  0.35509809    -0.17900
C423        C  0.50380724  0.19490680  0.38277917    -0.19700
C424        C  0.47508754  0.18002499  0.39355258    -0.12300
C425        C  0.47198362  0.14570131  0.39277344     0.04400
C426        C  0.49909526  0.12645176  0.38372409    -0.24400
H427        H  0.59799164  0.12039851  0.33318423     0.09500
H428        H  0.55189616  0.09520769  0.36066408     0.13100
H429        H  0.55776593  0.21670798  0.35291460     0.13000
H430        H  0.50502775  0.22143778  0.38218615     0.12800
H431        H  0.45459429  0.19542088  0.40030139     0.13300
H432        H  0.49716796  0.09993088  0.38341533     0.15300
C433        C  0.35649894  0.14634335  0.38638044    -0.04700
C434        C  0.32691115  0.13083472  0.39275490    -0.04700
C435        C  0.29863247  0.14215465  0.37852097    -0.22800
C436        C  0.29979951  0.16827383  0.35651359     0.19400
C437        C  0.32947937  0.18435622  0.35051951     0.16600
C438        C  0.35738848  0.17384385  0.36612946    -0.17900
C439        C  0.33126230  0.20930876  0.32741926    -0.19700
C440        C  0.30432600  0.21737122  0.30941839    -0.12300
C441        C  0.27475503  0.20139059  0.31473350     0.04400
C442        C  0.27235061  0.17745754  0.33910286    -0.24400
H443        H  0.32599067  0.10908906  0.40764237     0.09500
H444        H  0.27623300  0.12934068  0.38332269     0.13100
H445        H  0.38038542  0.18517515  0.36031391     0.13000
H446        H  0.35378982  0.22185027  0.32248023     0.12800
H447        H  0.30661621  0.23622316  0.29116816     0.13300
H448        H  0.24966712  0.16494617  0.34334005     0.15300
C449        C  0.70161344  0.66887682  0.65308964    -0.04700
C450        C  0.67823796  0.66320181  0.62951465    -0.04700
C451        C  0.68519718  0.64381360  0.60210937    -0.22800
C452        C  0.71568438  0.62936136  0.59763136     0.19400
C453        C  0.73911832  0.63376883  0.62161257     0.16600
C454        C  0.73203224  0.65365079  0.64913367    -0.17900
C455        C  0.76963205  0.61922342  0.61695992    -0.19700
C456        C  0.77762282  0.60286101  0.58782335    -0.12300
C457        C  0.75518962  0.60031172  0.56295793     0.04400
C458        C  0.72373367  0.61235712  0.56865180    -0.24400
H459        H  0.65451308  0.67433434  0.63192423     0.09500
H460        H  0.66689662  0.64068325  0.58408361     0.13100
H461        H  0.75013020  0.65737531  0.66726707     0.13000
H462        H  0.78790071  0.62208384  0.63504858     0.12800
H463        H  0.80221080  0.59445758  0.58361101     0.13300
H464        H  0.70655988  0.61134516  0.54929329     0.15300
C465        C  0.71858058  0.64871223  0.33921317    -0.04700
C466        C  0.75205868  0.64329994  0.33861090    -0.04700
C467        C  0.76659880  0.62616346  0.36345689    -0.22800
C468        C  0.74799049  0.61473945  0.38975711     0.19400
C469        C  0.71406341  0.61806620  0.38975584     0.16600
C470        C  0.69943974  0.63453905  0.36405988    -0.17900
C471        C  0.69574634  0.60713699  0.41666726    -0.19700
C472        C  0.71114383  0.59629388  0.44454443    -0.12300
C473        C  0.74495189  0.59576173  0.44555335     0.04400
C474        C  0.76307016  0.60281921  0.41727876    -0.24400
H475        H  0.76722367  0.65335559  0.31942180     0.09500
H476        H  0.79260398  0.62351477  0.36301009     0.13100
H477        H  0.67357034  0.63842800  0.36469902     0.13000
H478        H  0.66969973  0.60920700  0.41705060     0.12800
H479        H  0.69674235  0.59107508  0.46614071     0.13300
H480        H  0.78917915  0.60222118  0.41788407     0.15300
C481        C  0.42743961  0.80766031  0.55476004    -0.04700
C482        C  0.45598162  0.81886317  0.53920609    -0.04700
C483        C  0.45963534  0.81823467  0.50542092    -0.22800
C484        C  0.43496450  0.80626211  0.48605796     0.19400
C485        C  0.40733937  0.79249354  0.50099791     0.16600
C486        C  0.40380944  0.79300440  0.53520949    -0.17900
C487        C  0.38302557  0.78005908  0.48133323    -0.19700
C488        C  0.38529552  0.78281606  0.44741800    -0.12300
C489        C  0.41173780  0.79851503  0.43210550     0.04400
C490        C  0.43686232  0.80944915  0.45209439    -0.24400
H491        H  0.47475179  0.83042013  0.55290564     0.09500
H492        H  0.48124474  0.82856846  0.49438204     0.13100
H493        H  0.38187984  0.78367837  0.54639738     0.13000
H494        H  0.36175040  0.76893345  0.49222807     0.12800
H495        H  0.36581650  0.77313770  0.43353420     0.13300
H496        H  0.45719088  0.82247862  0.44174441     0.15300
C497        C  0.47339621  0.81503801  0.61778088    -0.04700
C498        C  0.47716419  0.78073068  0.61741083    -0.04700
C499        C  0.50329165  0.76591488  0.63275019    -0.22800
C500        C  0.52603158  0.78515738  0.64891379     0.19400
C501        C  0.52300410  0.81968149  0.64836392     0.16600
C502        C  0.49714983  0.83430608  0.63246774    -0.17900
C503        C  0.54523929  0.83913832  0.66469335    -0.19700
C504        C  0.57004538  0.82462453  0.68186970    -0.12300
C505        C  0.57339572  0.79027760  0.68305816     0.04400
C506        C  0.55129719  0.77061601  0.66616659    -0.24400
H507        H  0.45903773  0.76528481  0.60670793     0.09500
H508        H  0.50512997  0.73939615  0.63285399     0.13100
H509        H  0.49477296  0.86079576  0.63275700     0.13000
H510        H  0.54317912  0.86564673  0.66458824     0.12800
H511        H  0.58654785  0.84047592  0.69448695     0.13300
H512        H  0.55341189  0.74412388  0.66683793     0.15300
C513        C  0.54043218  0.54452374  0.84509698    -0.04700
C514        C  0.54703102  0.56877881  0.86843763    -0.04700
C515        C  0.56190304  0.59811877  0.85962072    -0.22800
C516        C  0.57054011  0.60393881  0.82716924     0.19400
C517        C  0.56300081  0.58036511  0.80316280     0.16600
C518        C  0.54779251  0.55079037  0.81223893    -0.17900
C519        C  0.57163124  0.58649562  0.77067569    -0.19700
C520        C  0.58768855  0.61547855  0.76216335    -0.12300
C521        C  0.59580230  0.63879856  0.78596201     0.04400
C522        C  0.58701633  0.63276691  0.81849860    -0.24400
H523        H  0.54147626  0.56458920  0.89385863     0.09500
H524        H  0.56727733  0.61595571  0.87831565     0.13100
H525        H  0.54318766  0.53211048  0.79410174     0.13000
H526        H  0.56619316  0.56878864  0.75188430     0.12800
H527        H  0.59431221  0.61935840  0.73692491     0.13300
H528        H  0.59299233  0.65049948  0.83710622     0.15300
C529        C  0.36063385  0.81474814  0.60030821    -0.04700
C530        C  0.33204451  0.83046866  0.59138688    -0.04700
C531        C  0.30222708  0.82083788  0.60480674    -0.22800
C532        C  0.30074216  0.79621651  0.62839203     0.19400
C533        C  0.32932235  0.77932318  0.63634741     0.16600
C534        C  0.35886663  0.78798257  0.62146776    -0.17900
C535        C  0.32836690  0.75584674  0.66092694    -0.19700
C536        C  0.29977851  0.75023902  0.67854842    -0.12300
C537        C  0.27128954  0.76728274  0.67143092     0.04400
C538        C  0.27168132  0.78955610  0.64553276    -0.24400
H539        H  0.33307476  0.85165610  0.57574087     0.09500
H540        H  0.28066783  0.83415167  0.59840702     0.13100
H541        H  0.38097597  0.77645563  0.62920396     0.13000
H542        H  0.35001583  0.74268360  0.66735788     0.12800
H543        H  0.29995939  0.73248973  0.69793353     0.13300
H544        H  0.24985288  0.80280002  0.63982277     0.15300
C545        C  0.07219773  0.59018320  0.43035017    -0.04700
C546        C  0.04958857  0.59367022  0.40574156    -0.04700
C547        C  0.05908483  0.60439855  0.37484122    -0.22800
C548        C  0.09142008  0.61208628  0.36795066     0.19400
C549        C  0.11480115  0.60584091  0.39152878     0.16600
C550        C  0.10510616  0.59455973  0.42247953    -0.17900
C551        C  0.14718144  0.61324911  0.38452757    -0.19700
C552        C  0.15600953  0.62855175  0.35541997    -0.12300
C553        C  0.13265674  0.63706236  0.33272755     0.04400
C554        C  0.10044439  0.62770957  0.33875271    -0.24400
H555        H  0.02413736  0.59027682  0.41111521     0.09500
H556        H  0.04084003  0.60850384  0.35696544     0.13100
H557        H  0.12279228  0.59233003  0.44123746     0.13000
H558        H  0.16553118  0.60842984  0.40212486     0.12800
H559        H  0.18102034  0.63524931  0.35144265     0.13300
H560        H  0.08222976  0.63373718  0.32135954     0.15300
C561        C  0.08295848  0.60200013  0.54734817    -0.04700
C562        C  0.07281816  0.58831711  0.57695081    -0.04700
C563        C  0.08512027  0.60004400  0.60627697    -0.22800
C564        C  0.10694428  0.62638005  0.60641730     0.19400
C565        C  0.11741468  0.63986163  0.57650971     0.16600
C566        C  0.10582306  0.62722331  0.54729302    -0.17900
C567        C  0.13810945  0.66687664  0.57625060    -0.19700
C568        C  0.14773152  0.68111889  0.60528758    -0.12300
C569        C  0.13750293  0.66832182  0.63532916     0.04400
C570        C  0.11751530  0.64038133  0.63575785    -0.24400
H571        H  0.05458794  0.56938496  0.57742115     0.09500
H572        H  0.07657560  0.58945044  0.62886798     0.13100
H573        H  0.11298487  0.63841797  0.52449360     0.13000
H574        H  0.14625471  0.67753926  0.55354311     0.12800
H575        H  0.16329635  0.70236583  0.60421716     0.13300
H576        H  0.10924350  0.63042305  0.65874834     0.15300
C577        C  0.52592277  0.42849038  0.83438045    -0.04700
C578        C  0.51931352  0.39843095  0.84947834    -0.04700
C579        C  0.53437103  0.36949811  0.83839565    -0.22800
C580        C  0.55699130  0.37034463  0.81255811     0.19400
C581        C  0.56268806  0.40024084  0.79628059     0.16600
C582        C  0.54640369  0.42894281  0.80672812    -0.17900
C583        C  0.58626781  0.40142626  0.77135302    -0.19700
C584        C  0.60479138  0.37358948  0.76337856    -0.12300
C585        C  0.59953661  0.34382166  0.77957372     0.04400
C586        C  0.57508474  0.34221156  0.80374830    -0.24400
H587        H  0.50418968  0.39778672  0.87126562     0.09500
H588        H  0.52977136  0.34687091  0.85123762     0.13100
H589        H  0.55232136  0.45220639  0.79557858     0.13000
H590        H  0.59103334  0.42411352  0.75866896     0.12800
H591        H  0.62320730  0.37529256  0.74437826     0.13300
H592        H  0.57097032  0.31941747  0.81648901     0.15300
C593        C  0.42295608  0.15568648  0.56618521    -0.04700
C594        C  0.45371808  0.14974096  0.55153739    -0.04700
C595        C  0.45837118  0.14933927  0.51791490    -0.22800
C596        C  0.43258258  0.15520451  0.49757325     0.19400
C597        C  0.40218728  0.16366340  0.51136088     0.16600
C598        C  0.39743503  0.16374052  0.54548731    -0.17900
C599        C  0.37675652  0.17040979  0.49063930    -0.19700
C600        C  0.38085046  0.16663874  0.45691531    -0.12300
C601        C  0.41033723  0.15535327  0.44281728     0.04400
C602        C  0.43645141  0.15094957  0.46377386    -0.24400
H603        H  0.47422091  0.14320353  0.56577091     0.09500
H604        H  0.48201446  0.14313053  0.50781324     0.13100
H605        H  0.37358421  0.16854083  0.55559130     0.13000
H606        H  0.35332463  0.17764209  0.50054938     0.12800
H607        H  0.36025922  0.17149608  0.44229117     0.13300
H608        H  0.45942387  0.14202779  0.45437366     0.15300
C609        C  0.57359413  0.19393517  0.68079369    -0.04700
C610        C  0.57853296  0.16164746  0.66958383    -0.04700
C611        C  0.55420606  0.14488928  0.65372661    -0.22800
C612        C  0.52473823  0.16046636  0.64803355     0.19400
C613        C  0.51991337  0.19351810  0.65794616     0.16600
C614        C  0.54422687  0.20993618  0.67488621    -0.17900
C615        C  0.49066183  0.20923246  0.65115564    -0.19700
C616        C  0.46599735  0.19192042  0.63605144    -0.12300
C617        C  0.47002029  0.15856358  0.62800088     0.04400
C618        C  0.49970414  0.14317154  0.63345245    -0.24400
H619        H  0.60107323  0.14904274  0.67389409     0.09500
H620        H  0.55836461  0.11967797  0.64611993     0.13100
H621        H  0.54050458  0.23502015  0.68316660     0.13000
H622        H  0.48655381  0.23459219  0.65826912     0.12800
H623        H  0.44306661  0.20403158  0.63244222     0.13300
H624        H  0.50282887  0.11739736  0.62735405     0.15300
C625        C  0.75859623  0.42119472  0.48980075    -0.04700
C626        C  0.76780489  0.43629153  0.46031855    -0.04700
C627        C  0.76482156  0.47015713  0.45621582    -0.22800
C628        C  0.75285018  0.49022043  0.48153539     0.19400
C629        C  0.74157301  0.47574636  0.51052374     0.16600
C630        C  0.74403697  0.44135085  0.51434297    -0.17900
C631        C  0.72971879  0.49618862  0.53580926    -0.19700
C632        C  0.73102265  0.53053553  0.53312630    -0.12300
C633        C  0.74410889  0.54537846  0.50505568     0.04400
C634        C  0.75386661  0.52459963  0.47889612    -0.24400
H635        H  0.77942978  0.42245019  0.44082886     0.09500
H636        H  0.77346014  0.48084796  0.43369091     0.13100
H637        H  0.73612425  0.43078242  0.53706160     0.13000
H638        H  0.72059320  0.48564380  0.55820467     0.12800
H639        H  0.72267328  0.54530065  0.55354462     0.13300
H640        H  0.76461326  0.53492803  0.45715774     0.15300
C641        C  0.77270091  0.35859676  0.44150468    -0.04700
C642        C  0.79505917  0.34908964  0.41694065    -0.04700
C643        C  0.78518203  0.33191898  0.38946866    -0.22800
C644        C  0.75270562  0.32355359  0.38614997     0.19400
C645        C  0.72966913  0.33476133  0.40967067     0.16600
C646        C  0.73974672  0.35261971  0.43703923    -0.17900
C647        C  0.69719682  0.32636421  0.40627995    -0.19700
C648        C  0.68782967  0.30615709  0.38059770    -0.12300
C649        C  0.71069324  0.29372986  0.35774551     0.04400
C650        C  0.74312688  0.30314043  0.36040813    -0.24400
H651        H  0.82056737  0.35344571  0.41988928     0.09500
H652        H  0.80316291  0.32387720  0.37158848     0.13100
H653        H  0.72237962  0.35945680  0.45600557     0.13000
H654        H  0.67913475  0.33477727  0.42390796     0.12800
H655        H  0.66262622  0.29963487  0.37909035     0.13300
H656        H  0.76098430  0.29417779  0.34281722     0.15300
C657        C  0.76164508  0.37632911  0.55597199    -0.04700
C658        C  0.77438856  0.38693950  0.58545290    -0.04700
C659        C  0.76161792  0.37549256  0.61503707    -0.22800
C660        C  0.73677853  0.35216132  0.61547238     0.19400
C661        C  0.72313796  0.34238043  0.58584137     0.16600
C662        C  0.73503843  0.35521055  0.55644350    -0.17900
C663        C  0.69938950  0.31813078  0.58578414    -0.19700
C664        C  0.69014180  0.30264108  0.61452847    -0.12300
C665        C  0.70394205  0.31137758  0.64418736     0.04400
C666        C  0.72667120  0.33699118  0.64462747    -0.24400
H667        H  0.79542802  0.40257098  0.58545877     0.09500
H668        H  0.77250891  0.38328543  0.63739103     0.13100
H669        H  0.72583124  0.34613740  0.53369761     0.13000
H670        H  0.68875313  0.31028536  0.56330590     0.12800
H671        H  0.67232928  0.28334712  0.61341030     0.13300
H672        H  0.73760130  0.34393806  0.66723727     0.15300
C673        C  0.25581454  0.17430236  0.68385443    -0.04700
C674        C  0.25732216  0.13998620  0.68020088    -0.04700
C675        C  0.28179753  0.12510781  0.66108762    -0.22800
C676        C  0.30563623  0.14419658  0.64566327     0.19400
C677        C  0.30403894  0.17870354  0.64845717     0.16600
C678        C  0.27893647  0.19353207  0.66707800    -0.17900
C679        C  0.32848714  0.19770723  0.63392508    -0.19700
C680        C  0.35559305  0.18260995  0.61915678    -0.12300
C681        C  0.35833545  0.14819609  0.61765462     0.04400
C682        C  0.33211780  0.12927116  0.62929138    -0.24400
H683        H  0.23981685  0.12455238  0.69250554     0.09500
H684        H  0.28269240  0.09857450  0.65926887     0.13100
H685        H  0.27820816  0.22003268  0.66949925     0.13000
H686        H  0.32762439  0.22423967  0.63573587     0.12800
H687        H  0.37536433  0.19790861  0.61088716     0.13300
H688        H  0.33358379  0.10272663  0.62809031     0.15300
C689        C  0.12525665  0.42833707  0.50131493    -0.04700
C690        C  0.09567982  0.42949238  0.48561998    -0.04700
C691        C  0.08083620  0.45974334  0.47932349    -0.22800
C692        C  0.09568581  0.48938730  0.48811393     0.19400
C693        C  0.12555631  0.48844986  0.50374453     0.16600
C694        C  0.13997731  0.45805131  0.51037298    -0.17900
C695        C  0.14064959  0.51795008  0.51232890    -0.19700
C696        C  0.12576352  0.54815384  0.50651552    -0.12300
C697        C  0.09576854  0.54945719  0.49168039     0.04400
C698        C  0.08109866  0.51992962  0.48195511    -0.24400
H699        H  0.08446806  0.40695739  0.47769209     0.09500
H700        H  0.05799949  0.45997623  0.46719355     0.13100
H701        H  0.16332020  0.45740764  0.52152371     0.13000
H702        H  0.16367605  0.51763889  0.52409867     0.12800
H703        H  0.13735187  0.57056933  0.51417061     0.13300
H704        H  0.05771150  0.52079816  0.47091142     0.15300
C705        C  0.14888397  0.37528922  0.44721224    -0.04700
C706        C  0.12820140  0.34818348  0.44923729    -0.04700
C707        C  0.12345617  0.32813440  0.42211254    -0.22800
C708        C  0.13900525  0.33524024  0.39245260     0.19400
C709        C  0.15753163  0.36421489  0.38962204     0.16600
C710        C  0.16264665  0.38388464  0.41713313    -0.17900
C711        C  0.17221149  0.37197232  0.35976718    -0.19700
C712        C  0.17008544  0.35038932  0.33346046    -0.12300
C713        C  0.15389656  0.32033446  0.33669960     0.04400
C714        C  0.13773395  0.31314984  0.36608988    -0.24400
H715        H  0.11780807  0.34100028  0.47245231     0.09500
H716        H  0.10887362  0.30630194  0.42471285     0.13100
H717        H  0.17887470  0.40461073  0.41565350     0.13000
H718        H  0.18620780  0.39418659  0.35704476     0.12800
H719        H  0.18277156  0.35635847  0.31101337     0.13300
H720        H  0.12501417  0.29011905  0.36865749     0.15300
C721        C  0.15076394  0.31834229  0.66739819    -0.04700
C722        C  0.17526023  0.34210673  0.66761597    -0.04700
C723        C  0.17881934  0.36457085  0.64260765    -0.22800
C724        C  0.15815703  0.36366508  0.61641861     0.19400
C725        C  0.13218789  0.34125383  0.61643557     0.16600
C726        C  0.12832834  0.31881044  0.64228615    -0.17900
C727        C  0.11198360  0.34046726  0.58957780    -0.19700
C728        C  0.11907692  0.35964894  0.56217341    -0.12300
C729        C  0.14632759  0.38007073  0.56128235     0.04400
C730        C  0.16469085  0.38316411  0.58919833    -0.24400
H731        H  0.19259014  0.34259719  0.68683880     0.09500
H732        H  0.19870029  0.38168793  0.64306141     0.13100
H733        H  0.10946894  0.30054524  0.64173347     0.13000
H734        H  0.09187065  0.32366127  0.58897841     0.12800
H735        H  0.10481461  0.35648129  0.54074141     0.13300
H736        H  0.18586539  0.39865670  0.58859752     0.15300
C737        C  0.37572172  0.48414993  0.16699947    -0.04700
C738        C  0.39051272  0.51338635  0.15636439    -0.04700
C739        C  0.42353602  0.51837399  0.15949195    -0.22800
C740        C  0.44291744  0.49411292  0.17296094     0.19400
C741        C  0.42842345  0.46576551  0.18605525     0.16600
C742        C  0.39483943  0.46110154  0.18340751    -0.17900
C743        C  0.44816385  0.44162713  0.19950527    -0.19700
C744        C  0.48189015  0.44413392  0.19718060    -0.12300
C745        C  0.49675855  0.47088586  0.18145195     0.04400
C746        C  0.47670362  0.49671110  0.17115179    -0.24400
H747        H  0.37710896  0.53163242  0.14334776     0.09500
H748        H  0.43421214  0.54041112  0.14950907     0.13100
H749        H  0.38409931  0.43865349  0.19223346     0.13000
H750        H  0.43759015  0.41993127  0.21029607     0.12800
H751        H  0.49610173  0.42426579  0.20647608     0.13300
H752        H  0.48717969  0.51765116  0.15895137     0.15300
C753        C  0.25706138  0.33213709  0.20732973    -0.04700
C754        C  0.25152379  0.36186994  0.22416275    -0.04700
C755        C  0.27114571  0.38895364  0.21852470    -0.22800
C756        C  0.29614335  0.38719525  0.19515725     0.19400
C757        C  0.30244792  0.35731764  0.17834177     0.16600
C758        C  0.28329931  0.32961091  0.18512755    -0.17900
C759        C  0.32636520  0.35641863  0.15362421    -0.19700
C760        C  0.34145837  0.38546368  0.14365041    -0.12300
C761        C  0.33390186  0.41546052  0.15920248     0.04400
C762        C  0.31290295  0.41566173  0.18638751    -0.24400
H763        H  0.23185863  0.36419164  0.24185646     0.09500
H764        H  0.26592956  0.41166769  0.23152131     0.13100
H765        H  0.28771972  0.30677003  0.17206451     0.13000
H766        H  0.33155495  0.33385079  0.14038033     0.12800
H767        H  0.35705102  0.38500281  0.12218105     0.13300
H768        H  0.30631827  0.43887207  0.19788403     0.15300
C769        C  0.24392562  0.63067499  0.18391599    -0.04700
C770        C  0.24329682  0.62605801  0.15011305    -0.04700
C771        C  0.26150079  0.60108519  0.13492284    -0.22800
C772        C  0.28055960  0.58004444  0.15324203     0.19400
C773        C  0.28242440  0.58507327  0.18703530     0.16600
C774        C  0.26433031  0.61051610  0.20213075    -0.17900
C775        C  0.30128290  0.56367839  0.20528606    -0.19700
C776        C  0.31631951  0.53629897  0.19052129    -0.12300
C777        C  0.31328084  0.53018007  0.15714509     0.04400
C778        C  0.29648851  0.55312591  0.13848731    -0.24400
H779        H  0.22808183  0.64127008  0.13540121     0.09500
H780        H  0.25989009  0.59760495  0.10895399     0.13100
H781        H  0.26537879  0.61390300  0.22815591     0.13000
H782        H  0.30317387  0.56724911  0.23121186     0.12800
H783        H  0.32889097  0.51903860  0.20556150     0.13300
H784        H  0.29443076  0.54922890  0.11262919     0.15300
C785        C  0.36002453  0.47920641  0.81548633    -0.04700
C786        C  0.37521336  0.45034937  0.80351618    -0.04700
C787        C  0.40899172  0.44800940  0.80073425    -0.22800
C788        C  0.42848020  0.47427148  0.81038537     0.19400
C789        C  0.41358569  0.50405904  0.82010315     0.16600
C790        C  0.37976290  0.50652798  0.82206534    -0.17900
C791        C  0.43267101  0.53027026  0.83010694    -0.19700
C792        C  0.46585849  0.52618419  0.83341429    -0.12300
C793        C  0.48125519  0.49579719  0.82640850     0.04400
C794        C  0.46225552  0.47053964  0.81285379    -0.24400
H795        H  0.36126043  0.42899484  0.79756137     0.09500
H796        H  0.41986483  0.42497566  0.79275309     0.13100
H797        H  0.36903673  0.52904443  0.83154952     0.13000
H798        H  0.42164745  0.55345291  0.83743486     0.12800
H799        H  0.47868505  0.54642636  0.84392633     0.13300
H800        H  0.47312556  0.44710176  0.80650815     0.15300
C801        C  0.24892469  0.32472371  0.79080396    -0.04700
C802        C  0.25632356  0.34627042  0.76525103    -0.04700
C803        C  0.27377281  0.37487065  0.77056619    -0.22800
C804        C  0.28471957  0.38241745  0.80151540     0.19400
C805        C  0.27899715  0.36024071  0.82720656     0.16600
C806        C  0.26074657  0.33160802  0.82181710    -0.17900
C807        C  0.29051092  0.36790217  0.85804437    -0.19700
C808        C  0.30537530  0.39814787  0.86378674    -0.12300
C809        C  0.30908424  0.42128121  0.83884779     0.04400
C810        C  0.29962969  0.41267921  0.80747990    -0.24400
H811        H  0.24746358  0.34164614  0.74115915     0.09500
H812        H  0.27802236  0.39149055  0.75058832     0.13100
H813        H  0.25540768  0.31507486  0.84163399     0.13000
H814        H  0.28670357  0.35121332  0.87804089     0.12800
H815        H  0.31204747  0.40444041  0.88828349     0.13300
H816        H  0.30155144  0.43057985  0.78825925     0.15300
C817        C  0.30482882  0.53577096  0.81252982    -0.04700
C818        C  0.29286937  0.53011129  0.78144172    -0.04700
C819        C  0.27698744  0.55524706  0.76503536    -0.22800
C820        C  0.27297520  0.58643489  0.77948833     0.19400
C821        C  0.28754949  0.59298710  0.80945914     0.16600
C822        C  0.30337828  0.56766858  0.82571429    -0.17900
C823        C  0.28429546  0.62419898  0.82373519    -0.19700
C824        C  0.26543080  0.64825408  0.80936918    -0.12300
C825        C  0.24899431  0.64150046  0.78070235     0.04400
C826        C  0.25347709  0.61066232  0.76540520    -0.24400
H827        H  0.29332072  0.50556777  0.77108718     0.09500
H828        H  0.26636601  0.54980046  0.74190003     0.13100
H829        H  0.31237654  0.57208061  0.84980023     0.13000
H830        H  0.29556546  0.62972163  0.84653317     0.12800
H831        H  0.26264538  0.67185147  0.82146790     0.13300
H832        H  0.24140029  0.60537438  0.74298530     0.15300
C833        C  0.85902092  0.30099232  0.12138310    -0.04700
C834        C  0.82999882  0.31649426  0.11340788    -0.04700
C835        C  0.80043178  0.30542177  0.12624364    -0.22800
C836        C  0.79952974  0.27956224  0.14850715     0.19400
C837        C  0.82857372  0.26316577  0.15585165     0.16600
C838        C  0.85796926  0.27341758  0.14157372    -0.17900
C839        C  0.82811223  0.23842269  0.17920939    -0.19700
C840        C  0.79959574  0.23118630  0.19637112    -0.12300
C841        C  0.77068568  0.24787496  0.19002877     0.04400
C842        C  0.77056262  0.27126793  0.16512178    -0.24400
H843        H  0.83043713  0.33833291  0.09863568     0.09500
H844        H  0.77853767  0.31844259  0.12039165     0.13100
H845        H  0.88038068  0.26212120  0.14875561     0.13000
H846        H  0.85008478  0.22558790  0.18517625     0.12800
H847        H  0.80024212  0.21270170  0.21505728     0.13300
H848        H  0.74846239  0.28434434  0.16007649     0.15300
C849        C  0.08421428  0.28488183  0.17581881    -0.04700
C850        C  0.08138711  0.31891679  0.17095679    -0.04700
C851        C  0.05412900  0.33223779  0.15663086    -0.22800
C852        C  0.02885507  0.31186612  0.14715713     0.19400
C853        C  0.03169933  0.27753791  0.15091375     0.16600
C854        C  0.05947481  0.26422728  0.16490763    -0.17900
C855        C  0.00612265  0.25725743  0.14182024    -0.19700
C856        C  0.97747775  0.27094521  0.13060774    -0.12300
C857        C  0.97405825  0.30510841  0.12772848     0.04400
C858        C  0.00023303  0.32537686  0.13534112    -0.24400
H859        H  0.10008207  0.33544267  0.17877809     0.09500
H860        H  0.05243221  0.35859212  0.15380769     0.13100
H861        H  0.06120440  0.23797134  0.16845067     0.13000
H862        H  0.00780926  0.23089684  0.14451314     0.12800
H863        H  0.95748496  0.25491987  0.12535903     0.13300
H864        H  0.99774910  0.35177638  0.13338753     0.15300
C865        C  0.85980590  0.66596163  0.88067857    -0.04700
C866        C  0.86422742  0.69734668  0.86746838    -0.04700
C867        C  0.83911529  0.71310928  0.85159320    -0.22800
C868        C  0.80906105  0.69782209  0.84879246     0.19400
C869        C  0.80347850  0.66768234  0.86465633     0.16600
C870        C  0.82882527  0.65202861  0.88061146    -0.17900
C871        C  0.77321706  0.65272028  0.86256255    -0.19700
C872        C  0.74916026  0.66677661  0.84390564    -0.12300
C873        C  0.75509643  0.69561435  0.82639863     0.04400
C874        C  0.78498645  0.71138199  0.82934770    -0.24400
H875        H  0.88793624  0.70837914  0.86677335     0.09500
H876        H  0.84375193  0.73640585  0.83999226     0.13100
H877        H  0.82527930  0.62770344  0.89045701     0.13000
H878        H  0.76839141  0.62976411  0.87474157     0.12800
H879        H  0.72618844  0.65442990  0.84217965     0.13300
H880        H  0.78952816  0.73394617  0.81634899     0.15300
C881        C  0.97165163  0.65384378  0.86296625    -0.04700
C882        C  0.97727711  0.68772478  0.86545044    -0.04700
C883        C  0.00544799  0.70132630  0.85226632    -0.22800
C884        C  0.02839693  0.68130261  0.83610161     0.19400
C885        C  0.02359568  0.64704738  0.83441914     0.16600
C886        C  0.99537895  0.63349188  0.84810329    -0.17900
C887        C  0.04654135  0.62712470  0.81804466    -0.19700
C888        C  0.07339518  0.64115658  0.80245324    -0.12300
C889        C  0.07788302  0.67533152  0.80313737     0.04400
C890        C  0.05551853  0.69515112  0.82069537    -0.24400
H891        H  0.95925102  0.70395730  0.87641524     0.09500
H892        H  0.00878807  0.72763685  0.85379953     0.13100
H893        H  0.99141278  0.60728935  0.84625250     0.13000
H894        H  0.04333203  0.60078928  0.81663886     0.12800
H895        H  0.09033739  0.62528082  0.78936837     0.13300
H896        H  0.05866487  0.72152316  0.82167352     0.15300
C897        C  0.03868408  0.92046161  0.30245537    -0.04700
C898        C  0.05233501  0.92097925  0.27095225    -0.04700
C899        C  0.06795912  0.89312152  0.25788501    -0.22800
C900        C  0.07002976  0.86429043  0.27611671     0.19400
C901        C  0.05352989  0.86256180  0.30645681     0.16600
C902        C  0.03781095  0.89062146  0.31934630    -0.17900
C903        C  0.05495029  0.83349655  0.32439189    -0.19700
C904        C  0.07388031  0.80699119  0.31318023    -0.12300
C905        C  0.09217644  0.80937106  0.28424926     0.04400
C906        C  0.08959563  0.83780750  0.26538048    -0.24400
H907        H  0.05362727  0.94377988  0.25768155     0.09500
H908        H  0.08004759  0.89475003  0.23438336     0.13100
H909        H  0.02750569  0.89014206  0.34374131     0.13000
H910        H  0.04220632  0.83162027  0.34752921     0.12800
H911        H  0.07531851  0.78509991  0.32779165     0.13300
H912        H  0.10324742  0.83948030  0.24271162     0.15300
C913        C  0.10664581  0.14609041  0.28788044    -0.04700
C914        C  0.10149658  0.14329000  0.32155994    -0.04700
C915        C  0.08564282  0.11613004  0.33457954    -0.22800
C916        C  0.07484949  0.09103121  0.31419965     0.19400
C917        C  0.07864826  0.09404478  0.28021616     0.16600
C918        C  0.09429851  0.12171103  0.26722420    -0.17900
C919        C  0.06783707  0.06870709  0.25995544    -0.19700
C920        C  0.05484468  0.04004088  0.27331828    -0.12300
C921        C  0.05245437  0.03630118  0.30709092     0.04400
C922        C  0.06162087  0.06234392  0.32736352    -0.24400
H923        H  0.11036545  0.16183628  0.33801851     0.09500
H924        H  0.08269399  0.11429826  0.36066048     0.13100
H925        H  0.09802781  0.12353714  0.24121634     0.13000
H926        H  0.07043095  0.07058311  0.23385330     0.12800
H927        H  0.04807616  0.02015809  0.25729758     0.13300
H928        H  0.05961002  0.05970831  0.35345158     0.15300
C929        C  0.81289971  0.92545976  0.67184948    -0.04700
C930        C  0.82275944  0.89535028  0.65792163    -0.04700
C931        C  0.80955028  0.86575878  0.66907934    -0.22800
C932        C  0.78515432  0.86597572  0.69337211     0.19400
C933        C  0.77608528  0.89617418  0.70827740     0.16600
C934        C  0.79069733  0.92550562  0.69811365    -0.17900
C935        C  0.75078801  0.89697677  0.73137677    -0.19700
C936        C  0.73352131  0.86853716  0.73852489    -0.12300
C937        C  0.74154181  0.83837235  0.72339144     0.04400
C938        C  0.76824582  0.83703286  0.70154503    -0.24400
H939        H  0.83929840  0.89492953  0.63716870     0.09500
H940        H  0.81685729  0.84298212  0.65725242     0.13100
H941        H  0.78226972  0.94874696  0.70826359     0.13000
H942        H  0.74348128  0.91987712  0.74299062     0.12800
H943        H  0.71342827  0.87027677  0.75577081     0.13300
H944        H  0.77464832  0.81402743  0.68962191     0.15300
C945        C  0.74089704  0.14831905  0.69653010    -0.04700
C946        C  0.74519643  0.14667644  0.66257204    -0.04700
C947        C  0.76156337  0.12030205  0.64768482    -0.22800
C948        C  0.77374974  0.09478942  0.66640756     0.19400
C949        C  0.77061908  0.09660395  0.70058554     0.16600
C950        C  0.75445200  0.12347504  0.71545822    -0.17900
C951        C  0.78266734  0.07088242  0.71923632    -0.19700
C952        C  0.79635542  0.04302643  0.70416191    -0.12300
C953        C  0.79843368  0.04045678  0.67019621     0.04400
C954        C  0.78781685  0.06688949  0.65146435    -0.24400
H955        H  0.73532428  0.16555885  0.64732791     0.09500
H956        H  0.76389441  0.11942730  0.62148037     0.13100
H957        H  0.75134051  0.12434615  0.74159929     0.13000
H958        H  0.78054963  0.07182041  0.74544049     0.12800
H959        H  0.80409944  0.02285357  0.71905880     0.13300
H960        H  0.78943762  0.06519245  0.62524356     0.15300
C961        C  0.19705394  0.16247721  0.85860731    -0.04700
C962        C  0.19009790  0.17578125  0.88963297    -0.04700
C963        C  0.19885626  0.15919785  0.91760246    -0.22800
C964        C  0.21533612  0.12912326  0.91524801     0.19400
C965        C  0.22193274  0.11498235  0.88433453     0.16600
C966        C  0.21226227  0.13147210  0.85619558    -0.17900
C967        C  0.23965904  0.08551499  0.88210203    -0.19700
C968        C  0.25262095  0.07157809  0.90991411    -0.12300
C969        C  0.24701461  0.08606853  0.94055377     0.04400
C970        C  0.22720930  0.11414395  0.94316381    -0.24400
H971        H  0.17807957  0.19936258  0.89233608     0.09500
H972        H  0.19365020  0.17043874  0.94105878     0.13100
H973        H  0.21789104  0.12093538  0.83251254     0.13000
H974        H  0.24512756  0.07433502  0.85868167     0.12800
H975        H  0.26857852  0.05052784  0.90732053     0.13300
H976        H  0.22377705  0.12611352  0.96658708     0.15300
C977        C  0.27095966  0.10112106  0.05150397    -0.04700
C978        C  0.29544823  0.11354037  0.07117065    -0.04700
C979        C  0.28792531  0.13072468  0.09991212    -0.22800
C980        C  0.25569683  0.13569133  0.10983577     0.19400
C981        C  0.23095393  0.12150993  0.09144240     0.16600
C982        C  0.23870317  0.10421345  0.06250759    -0.15900
C983        C  0.19875150  0.12607272  0.10156980    -0.19700
C984        C  0.19102462  0.14550290  0.12881763    -0.12300
C985        C  0.21527305  0.16093792  0.14665800     0.04400
C986        C  0.24775968  0.15531636  0.13727294    -0.24400
H987        H  0.32056447  0.11098474  0.06374035     0.09500
H988        H  0.30730434  0.14094516  0.11386125     0.13100
H989        H  0.21955822  0.09486864  0.04767479     0.13000
H990        H  0.17944392  0.11519938  0.08799939     0.12800
H991        H  0.16581576  0.14895534  0.13551785     0.13300
H992        H  0.26680750  0.16669664  0.15084018     0.15300
C993        C  0.59097240  0.86857048  0.95477133    -0.04700
C994        C  0.62396315  0.87339645  0.94777336    -0.04700
C995        C  0.63806106  0.86174355  0.91860531    -0.22800
C996        C  0.61962981  0.84421576  0.89628961     0.19400
C997        C  0.58614029  0.84070706  0.90231429     0.16600
C998        C  0.57195814  0.85375175  0.93091203    -0.17900
C999        C  0.56766849  0.82247152  0.88060976    -0.19700
C1000       C  0.58247398  0.80658157  0.85397331    -0.12300
C1001       C  0.61579305  0.80918038  0.84826829     0.04400
C1002       C  0.63424544  0.82873383  0.86894604    -0.24400
H1003       H  0.63934354  0.88440741  0.96560932     0.09500
H1004       H  0.66374198  0.86483092  0.91435789     0.13100
H1005       H  0.54636073  0.85038183  0.93546328     0.13000
H1006       H  0.54197213  0.81950107  0.88488532     0.12800
H1007       H  0.56800618  0.79169772  0.83808796     0.13300
H1008       H  0.66002849  0.83071746  0.86449019     0.15300
C1009       C  0.62572331  0.81176135  0.17469833    -0.04700
C1010       C  0.59733950  0.82989693  0.18097984    -0.04700
C1011       C  0.58437246  0.84962201  0.15691507    -0.22800
C1012       C  0.59994310  0.85190135  0.12641740     0.19400
C1013       C  0.62980468  0.83565344  0.12080775     0.16600
C1014       C  0.64234899  0.81548346  0.14487259    -0.17900
C1015       C  0.64576790  0.83844586  0.09060545    -0.19700
C1016       C  0.63099843  0.85480596  0.06530657    -0.12300
C1017       C  0.60012613  0.86867153  0.06983952     0.04400
C1018       C  0.58524956  0.86832648  0.10082796    -0.24400
H1019       H  0.58442429  0.82765700  0.20400577     0.09500
H1020       H  0.56168989  0.86221939  0.16179225     0.13100
H1021       H  0.66465470  0.80209201  0.14016274     0.13000
H1022       H  0.66882760  0.82646378  0.08602166     0.12800
H1023       H  0.64259476  0.85442201  0.04146849     0.13300
H1024       H  0.56128016  0.87868595  0.10428866     0.15300
C1025       C  0.90759031  0.29192961  0.94743207    -0.04700
C1026       C  0.87642534  0.29135302  0.96225960    -0.04700
C1027       C  0.87211262  0.28957820  0.99596810    -0.22800
C1028       C  0.89873228  0.28864189  0.01612950     0.19400
C1029       C  0.92990866  0.28663657  0.00189138     0.16600
C1030       C  0.93415676  0.28757314  0.96785462    -0.17900
C1031       C  0.95651862  0.28607633  0.02199977    -0.19700
C1032       C  0.95251307  0.29006912  0.05558251    -0.12300
C1033       C  0.92161079  0.29410221  0.07054535     0.04400
C1034       C  0.89472087  0.29179807  0.05011601    -0.24400
H1035       H  0.85500671  0.29433880  0.94836508     0.09500
H1036       H  0.84783958  0.29079353  0.00634308     0.13100
H1037       H  0.95845136  0.28747028  0.95767686     0.13000
H1038       H  0.98075421  0.28437537  0.01160099     0.12800
H1039       H  0.97427431  0.29168424  0.06900992     0.13300
H1040       H  0.87052898  0.29476339  0.06002313     0.15300
C1041       C  0.85778778  0.30299681  0.88742836    -0.04700
C1042       C  0.85525145  0.26877552  0.88374242    -0.04700
C1043       C  0.82903873  0.25500122  0.86773950    -0.22800
C1044       C  0.80522594  0.27528362  0.85465875     0.19400
C1045       C  0.80684228  0.30957070  0.85976578     0.16600
C1046       C  0.83262641  0.32305903  0.87662830    -0.17900
C1047       C  0.78359940  0.33010712  0.84642928    -0.19700
C1048       C  0.75979165  0.31706084  0.82689309    -0.12300
C1049       C  0.75832266  0.28312095  0.82058595     0.04400
C1050       C  0.78067369  0.26216693  0.83541740    -0.24400
H1051       H  0.87438560  0.25279559  0.89169754     0.09500
H1052       H  0.82820415  0.22864664  0.86427134     0.13100
H1053       H  0.83410097  0.34945128  0.87965297     0.13000
H1054       H  0.78442306  0.35642324  0.85025385     0.12800
H1055       H  0.74266270  0.33375697  0.81634199     0.13300
H1056       H  0.77978812  0.23594818  0.83095790     0.15300
C1057       C  0.97083204  0.29867719  0.89549995    -0.04700
C1058       C  0.96946594  0.26668856  0.88258097    -0.04700
C1059       C  0.99548449  0.25370900  0.86412236    -0.22800
C1060       C  0.02327785  0.27255437  0.85828803     0.19400
C1061       C  0.02591673  0.30356543  0.87361839     0.16600
C1062       C  0.99990083  0.31618584  0.89243907    -0.17900
C1063       C  0.05380106  0.32231307  0.86835689    -0.19700
C1064       C  0.07851951  0.31087320  0.84744738    -0.12300
C1065       C  0.07556780  0.28085512  0.83090296     0.04400
C1066       C  0.04799948  0.26152633  0.83665369    -0.24400
H1067       H  0.94726502  0.25285090  0.88430266     0.09500
H1068       H  0.99316380  0.22970046  0.85298283     0.13100
H1069       H  0.00114380  0.34088748  0.90228194     0.13000
H1070       H  0.05628582  0.34604608  0.88002866     0.12800
H1071       H  0.09978082  0.32582692  0.84363896     0.13300
H1072       H  0.04592508  0.23800091  0.82444593     0.15300
C1073       C  0.92590138  0.66621394  0.92595366    -0.04700
C1074       C  0.95561838  0.65667410  0.93920708    -0.04700
C1075       C  0.96131377  0.66002347  0.97224096    -0.22800
C1076       C  0.93737480  0.67255512  0.99339655     0.19400
C1077       C  0.90836474  0.68451686  0.98066684     0.16600
C1078       C  0.90282948  0.68153076  0.94703645    -0.17900
C1079       C  0.88471729  0.69745784  0.00216338    -0.19700
C1080       C  0.88852327  0.69559256  0.03582075    -0.12300
C1081       C  0.91584323  0.68027913  0.04893062     0.04400
C1082       C  0.94109377  0.67081796  0.02718163    -0.24400
H1083       H  0.97406435  0.64436378  0.92465896     0.09500
H1084       H  0.98386239  0.65094665  0.98149756     0.13100
H1085       H  0.87994077  0.68946401  0.93779321     0.13000
H1086       H  0.86255658  0.70757907  0.99302998     0.12800
H1087       H  0.86912507  0.70465047  0.05144033     0.13300
H1088       H  0.96250842  0.65915425  0.03626910     0.15300
C1089       C  0.76951121  0.71147495  0.17876516    -0.04700
C1090       C  0.79778126  0.72877927  0.18562093    -0.04700
C1091       C  0.82562500  0.72463276  0.16629067    -0.22800
C1092       C  0.82608184  0.70226295  0.14030414     0.19400
C1093       C  0.79764405  0.68514544  0.13262001     0.16600
C1094       C  0.76924103  0.69048046  0.15146114    -0.17900
C1095       C  0.79879068  0.66144071  0.10765340    -0.19700
C1096       C  0.82832681  0.65282012  0.09255444    -0.12300
C1097       C  0.85678055  0.66885329  0.10111244     0.04400
C1098       C  0.85517815  0.69477213  0.12371313    -0.24400
H1099       H  0.79839910  0.74547204  0.20618744     0.09500
H1100       H  0.84720708  0.73789711  0.17253270     0.13100
H1101       H  0.74756240  0.67696946  0.14603709     0.13000
H1102       H  0.77732904  0.64797547  0.10143331     0.12800
H1103       H  0.82933198  0.63229283  0.07567818     0.13300
H1104       H  0.87729514  0.70650397  0.13100998     0.15300
C1105       C  0.07607051  0.68230737  0.16462318    -0.04700
C1106       C  0.07389898  0.64890703  0.15666504    -0.04700
C1107       C  0.04896689  0.63736836  0.13753522    -0.22800
C1108       C  0.02558668  0.65907411  0.12605864     0.19400
C1109       C  0.02803625  0.69301530  0.13281536     0.16600
C1110       C  0.05344483  0.70452688  0.15208134    -0.17900
C1111       C  0.00418573  0.71441357  0.12136282    -0.19700
C1112       C  0.97683290  0.70194814  0.10604313    -0.12300
C1113       C  0.97312555  0.66795655  0.10152939     0.04400
C1114       C  0.99870533  0.64698668  0.10979983    -0.24400
H1115       H  0.09124065  0.63157019  0.16587489     0.09500
H1116       H  0.04743050  0.61129421  0.13252870     0.13100
H1117       H  0.05517738  0.73041086  0.15796859     0.13000
H1118       H  0.00572946  0.74055606  0.12594719     0.12800
H1119       H  0.95747695  0.71863037  0.10012184     0.13300
H1120       H  0.99632567  0.62074776  0.10614877     0.15300
C1121       C  0.98206424  0.97903844  0.68223109    -0.04700
C1122       C  0.96880363  0.94768755  0.68797274    -0.04700
C1123       C  0.93537562  0.94317189  0.69099539    -0.22800
C1124       C  0.91411892  0.96975933  0.68796407     0.19400
C1125       C  0.92689690  0.00154035  0.68466607     0.16600
C1126       C  0.96048066  0.00606736  0.68245746    -0.17900
C1127       C  0.90589886  0.02813335  0.68114976    -0.19700
C1128       C  0.87285979  0.02306174  0.67803582    -0.12300
C1129       C  0.85944563  0.99119678  0.67911158     0.04400
C1130       C  0.88055606  0.96483691  0.68591647    -0.24400
H1131       H  0.98377189  0.92610719  0.68879163     0.09500
H1132       H  0.92612760  0.91852071  0.69397313     0.13100
H1133       H  0.96940630  0.03056989  0.67808050     0.13000
H1134       H  0.91524365  0.05282094  0.67872762     0.12800
H1135       H  0.85860725  0.04434175  0.67258531     0.13300
H1136       H  0.87148905  0.94007208  0.68731443     0.15300
C1137       C  0.03911606  0.92642939  0.65936975    -0.04700
C1138       C  0.04528998  0.90334614  0.63441125    -0.04700
C1139       C  0.06063036  0.87352492  0.64076110    -0.22800
C1140       C  0.07015277  0.86622507  0.67225979     0.19400
C1141       C  0.06229012  0.88838790  0.69790426     0.16600
C1142       C  0.04695058  0.91838324  0.69130690    -0.17900
C1143       C  0.07124365  0.88084827  0.72950000    -0.19700
C1144       C  0.08873598  0.85222130  0.73547515    -0.12300
C1145       C  0.09809852  0.83076947  0.70996089     0.04400
C1146       C  0.08830481  0.83772228  0.67836480    -0.24400
H1147       H  0.03974775  0.90920478  0.60959282     0.09500
H1148       H  0.06613237  0.85676311  0.62084235     0.13100
H1149       H  0.04284232  0.93624229  0.71061746     0.13000
H1150       H  0.06525873  0.89737160  0.74949093     0.12800
H1151       H  0.09583085  0.84735966  0.76007800     0.13300
H1152       H  0.09497077  0.82114485  0.65860795     0.15300
C1153       C  0.08488597  0.14745200  0.71857301    -0.04700
C1154       C  0.06327329  0.15502283  0.69397389    -0.04700
C1155       C  0.04380496  0.13064120  0.68066561    -0.22800
C1156       C  0.04530270  0.09832137  0.69200890     0.19400
C1157       C  0.06492604  0.09106636  0.71855257     0.16600
C1158       C  0.08471065  0.11558845  0.73152104    -0.17900
C1159       C  0.06585862  0.05891833  0.73042038    -0.19700
C1160       C  0.04987618  0.03365116  0.71433423    -0.12300
C1161       C  0.03296423  0.04007990  0.68603954     0.04400
C1162       C  0.02947414  0.07272005  0.67583507    -0.24400
H1163       H  0.06253444  0.17946710  0.68391380     0.09500
H1164       H  0.02852956  0.13678737  0.66067312     0.13100
H1165       H  0.10071373  0.10959448  0.75098689     0.13000
H1166       H  0.08048332  0.05296278  0.75095487     0.12800
H1167       H  0.05330636  0.00859832  0.72219984     0.13300
H1168       H  0.01675312  0.07771307  0.65377534     0.15300
C1169       C  0.99189014  0.98713781  0.29867350    -0.04700
C1170       C  0.97787595  0.01852780  0.30412771    -0.04700
C1171       C  0.94452763  0.02302777  0.30544666    -0.22800
C1172       C  0.92397175  0.99628761  0.30177824     0.19400
C1173       C  0.93704689  0.96543652  0.29285152     0.16600
C1174       C  0.97087367  0.96113076  0.29068225    -0.17900
C1175       C  0.91606798  0.93887630  0.28892195    -0.19700
C1176       C  0.88324540  0.94200374  0.29762573    -0.12300
C1177       C  0.87058875  0.97172520  0.31062406     0.04400
C1178       C  0.89099124  0.99942297  0.30991282    -0.24400
H1179       H  0.99213560  0.03961737  0.31021826     0.09500
H1180       H  0.93487934  0.04706960  0.31179949     0.13100
H1181       H  0.98046800  0.93691098  0.28551811     0.13000
H1182       H  0.92536363  0.91510663  0.28117896     0.12800
H1183       H  0.86844908  0.92037988  0.29606316     0.13300
H1184       H  0.88239369  0.02289736  0.31896778     0.15300
C1185       C  0.81821049  0.91530249  0.33404229    -0.04700
C1186       C  0.83018226  0.88461789  0.34337586    -0.04700
C1187       C  0.81375429  0.85572559  0.33543404    -0.22800
C1188       C  0.78437432  0.85722753  0.31921996     0.19400
C1189       C  0.77229762  0.88814637  0.30982772     0.16600
C1190       C  0.78964022  0.91679782  0.31661654    -0.17900
C1191       C  0.74239060  0.89010769  0.29497697    -0.19700
C1192       C  0.72440049  0.86181294  0.28957283    -0.12300
C1193       C  0.73610996  0.83073084  0.29829745     0.04400
C1194       C  0.76642076  0.82861228  0.31294962    -0.24400
H1195       H  0.85172209  0.88315268  0.35758581     0.09500
H1196       H  0.82335954  0.83233198  0.34308918     0.13100
H1197       H  0.77978411  0.94057295  0.31034162     0.13000
H1198       H  0.73269724  0.91364473  0.28781365     0.12800
H1199       H  0.70143553  0.86425762  0.27791179     0.13300
H1200       H  0.77579208  0.80485193  0.31984985     0.15300
C1201       C  0.74596880  0.11807905  0.29082936    -0.04700
C1202       C  0.73982367  0.08878899  0.27379352    -0.04700
C1203       C  0.75839094  0.06064868  0.27853975    -0.22800
C1204       C  0.78310424  0.06089169  0.30101611     0.19400
C1205       C  0.79007068  0.09030030  0.31792373     0.16600
C1206       C  0.77186525  0.11893044  0.31224685    -0.17900
C1207       C  0.81396111  0.09001226  0.34142043    -0.19700
C1208       C  0.82906420  0.06050545  0.34961856    -0.12300
C1209       C  0.82154872  0.03108873  0.33354877     0.04400
C1210       C  0.79950375  0.03170273  0.30833459    -0.24400
H1211       H  0.72043593  0.08756957  0.25674313     0.09500
H1212       H  0.75270537  0.03836625  0.26536212     0.13100
H1213       H  0.77689046  0.14134710  0.32551216     0.13000
H1214       H  0.81966842  0.11221210  0.35470822     0.12800
H1215       H  0.84564609  0.06031636  0.36947368     0.13300
H1216       H  0.79300854  0.00889057  0.29646497     0.15300
C1217       C  0.60414044  0.04692684  0.99460425    -0.04700
C1218       C  0.59207735  0.03198515  0.96634450    -0.04700
C1219       C  0.59065522  0.99789146  0.96291457    -0.22800
C1220       C  0.60113512  0.97746979  0.98762393     0.19400
C1221       C  0.61524024  0.99158677  0.01515729     0.16600
C1222       C  0.61683584  0.02611597  0.01845997    -0.17900
C1223       C  0.62604006  0.97088748  0.03962053    -0.19700
C1224       C  0.62101825  0.93691744  0.03778449    -0.12300
C1225       C  0.60473525  0.92258876  0.01157489     0.04400
C1226       C  0.59600011  0.94336080  0.98596316    -0.24400
H1227       H  0.58159927  0.04647181  0.94747958     0.09500
H1228       H  0.57993097  0.98753040  0.94145765     0.13100
H1229       H  0.62658143  0.03650294  0.04027713     0.13000
H1230       H  0.63741415  0.98107281  0.06079291     0.12800
H1231       H  0.62905145  0.92232521  0.05769039     0.13300
H1232       H  0.58315299  0.93350234  0.96559295     0.15300
C1233       C  0.62389188  0.16887862  0.83953949    -0.04700
C1234       C  0.59019550  0.16653010  0.84357680    -0.04700
C1235       C  0.57638282  0.14956393  0.86963081    -0.22800
C1236       C  0.59590733  0.13474690  0.89256677     0.19400
C1237       C  0.62980314  0.13555970  0.88834302     0.16600
C1238       C  0.64365459  0.15240433  0.86164207    -0.17900
C1239       C  0.64909666  0.12069885  0.91170095    -0.19700
C1240       C  0.63499293  0.10720699  0.93987447    -0.12300
C1241       C  0.60139729  0.10822587  0.94508511     0.04400
C1242       C  0.58200149  0.12077010  0.92056011    -0.24400
H1243       H  0.57430492  0.17837879  0.82678955     0.09500
H1244       H  0.55035638  0.14894262  0.87239125     0.13100
H1245       H  0.66964444  0.15378550  0.85884899     0.13000
H1246       H  0.67512024  0.12084475  0.90890894     0.12800
H1247       H  0.65045130  0.09793599  0.95851887     0.13300
H1248       H  0.55604149  0.12149328  0.92423296     0.15300
C1249       C  0.60293928  0.09421311  0.06095827    -0.04700
C1250       C  0.63625655  0.10030521  0.06074492    -0.04700
C1251       C  0.65085962  0.11345848  0.08819241    -0.22800
C1252       C  0.63230044  0.12112087  0.11621244     0.19400
C1253       C  0.59936575  0.11237559  0.11766688     0.16600
C1254       C  0.58503420  0.09856177  0.09020142    -0.17900
C1255       C  0.58081708  0.11969007  0.14578670    -0.19700
C1256       C  0.59437764  0.13682944  0.17161108    -0.12300
C1257       C  0.62649240  0.14739263  0.16955544     0.04400
C1258       C  0.64561190  0.13884543  0.14209235    -0.24400
H1259       H  0.65047888  0.09760732  0.03848146     0.09500
H1260       H  0.67623161  0.11956686  0.08677936     0.13100
H1261       H  0.55927990  0.09413888  0.09056180     0.13000
H1262       H  0.55559782  0.11298733  0.14743637     0.12800
H1263       H  0.57945643  0.14287373  0.19279195     0.13300
H1264       H  0.67059399  0.14647808  0.14069346     0.15300
C1265       C  0.24635274  0.03951980  0.00701001    -0.04700
C1266       C  0.25473696  0.02487099  0.03661025    -0.04700
C1267       C  0.25023095  0.99142199  0.04201990    -0.22800
C1268       C  0.23767170  0.97123754  0.01790170     0.19400
C1269       C  0.22673042  0.98541994  0.98912957     0.16600
C1270       C  0.23055314  0.01949936  0.98407665    -0.17900
C1271       C  0.21421691  0.96483141  0.96506875    -0.19700
C1272       C  0.21548001  0.93054357  0.96822155    -0.12300
C1273       C  0.22926485  0.91596696  0.99552386     0.04400
C1274       C  0.23835782  0.93691265  0.02116432    -0.24400
H1275       H  0.26702513  0.03843238  0.05508532     0.09500
H1276       H  0.25853549  0.98097721  0.06442035     0.13100
H1277       H  0.22321721  0.02975149  0.96132858     0.13000
H1278       H  0.20504871  0.97515020  0.94298525     0.12800
H1279       H  0.20705424  0.91561709  0.94847114     0.13300
H1280       H  0.24898418  0.92668342  0.04256798     0.15300
C1281       C  0.19478530  0.80284600  0.84209915    -0.04700
C1282       C  0.17192068  0.80261500  0.86790862    -0.04700
C1283       C  0.17785578  0.81893718  0.89709551    -0.22800
C1284       C  0.20669850  0.83610864  0.90100809     0.19400
C1285       C  0.22916448  0.83794962  0.87470760     0.16600
C1286       C  0.22310819  0.82126856  0.84543962    -0.17900
C1287       C  0.25807551  0.85505163  0.87870794    -0.19700
C1288       C  0.26576495  0.86791226  0.90909439    -0.12300
C1289       C  0.24440625  0.86460728  0.93577989     0.04400
C1290       C  0.21432351  0.84973847  0.93130697    -0.24400
H1291       H  0.14980733  0.78877534  0.86595451     0.09500
H1292       H  0.16030410  0.81733414  0.91689496     0.13100
H1293       H  0.24070006  0.82199779  0.82560656     0.13000
H1294       H  0.27549938  0.85691575  0.85883360     0.12800
H1295       H  0.28927305  0.87876677  0.91228165     0.13300
H1296       H  0.19808626  0.84641645  0.95200296     0.15300
C1297       C  0.21078106  0.80353483  0.15857111    -0.04700
C1298       C  0.24136607  0.81767318  0.16131953    -0.04700
C1299       C  0.25436583  0.83668628  0.13614752    -0.22800
C1300       C  0.23667170  0.84230053  0.10813680     0.19400
C1301       C  0.20488872  0.83022237  0.10630448     0.16600
C1302       C  0.19227287  0.81062750  0.13140067    -0.17900
C1303       C  0.18695778  0.83643941  0.07859332    -0.19700
C1304       C  0.20129844  0.85202500  0.05183314    -0.12300
C1305       C  0.23378778  0.86138744  0.05232184     0.04400
C1306       C  0.25090899  0.85782984  0.08111153    -0.24400
H1307       H  0.25587470  0.81257108  0.18217416     0.09500
H1308       H  0.27864184  0.84601808  0.13809133     0.13100
H1309       H  0.16846430  0.80008721  0.12941308     0.13000
H1310       H  0.16244969  0.82767841  0.07693464     0.12800
H1311       H  0.18785458  0.85414458  0.02976590     0.13300
H1312       H  0.27604942  0.86488102  0.08153941     0.15300
loop_ 
_geom_bond_atom_site_label_1 
_geom_bond_atom_site_label_2 
_geom_bond_distance 
_geom_bond_site_symmetry_2 
_ccdc_geom_bond_type 
N1            C5   1.365       .  A
N1            C2   1.365   1_556  A
N1         C1273   1.459       .  S
C2            C3   1.381       .  A
C2         C1305   1.482       .  S
C3            C4   1.366   1_554  A
C3            H6   1.083       .  S
C4            C5   1.381       .  A
C4            H7   1.083       .  S
C5         C1289   1.480       .  S
N8           C12   1.367   1_554  A
N8            C9   1.369       .  A
N8         C1217   1.462   1_554  S
C9           C10   1.384       .  A
C9         C1249   1.489       .  S
C10          C11   1.364   1_554  A
C10          H13   1.083       .  S
C11          C12   1.380       .  A
C11          H14   1.082       .  S
C12        C1241   1.491       .  S
N15          C19   1.365       .  A
N15          C16   1.366       .  A
N15        C1177   1.463       .  S
C16          C17   1.382       .  A
C16        C1185   1.480       .  S
C17          C18   1.367       .  A
C17          H20   1.083       .  S
C18          C19   1.379       .  A
C18          H21   1.082   1_565  S
C19        C1209   1.482   1_565  S
N22          C26   1.365   1_565  A
N22          C23   1.367       .  A
N22        C1121   1.464   1_455  S
C23          C24   1.383       .  A
C23        C1137   1.485       .  S
C24          C25   1.365   1_565  A
C24          H27   1.083       .  S
C25          C26   1.380       .  A
C25          H28   1.083       .  S
C26        C1161   1.480       .  S
N29          C33   1.366       .  A
N29          C30   1.370       .  A
N29        C1081   1.460       .  S
C30          C31   1.384       .  A
C30        C1113   1.494       .  S
C31          C32   1.363       .  A
C31          H34   1.082       .  S
C32          C33   1.378       .  A
C32          H35   1.083       .  S
C33        C1097   1.476       .  S
N36          C40   1.368       .  A
N36          C37   1.367       .  A
N36        C1025   1.467       .  S
C37          C38   1.382       .  A
C37        C1041   1.490       .  S
C38          C39   1.363       .  A
C38          H41   1.082       .  S
C39          C40   1.383       .  A
C39          H42   1.083       .  S
C40        C1057   1.488       .  S
N43          C47   1.365       .  A
N43          C44   1.367   1_554  A
N43        C1225   1.462       .  S
C44          C45   1.386   1_556  A
C44         C993   1.495       .  S
C45          C46   1.365       .  A
C45          H48   1.082   1_554  S
C46          C47   1.380       .  A
C46          H49   1.083       .  S
C47        C1017   1.479       .  S
N50          C54   1.370   1_556  A
N50          C51   1.367       .  A
N50        C1265   1.465   1_556  S
C51          C52   1.381       .  A
C51         C969   1.483       .  S
C52          C53   1.365       .  A
C52          H55   1.083       .  S
C53          C54   1.382   1_556  A
C53          H56   1.082   1_556  S
C54         C977   1.496       .  S
N57          C61   1.366       .  A
N57          C58   1.366   1_565  A
N57        C1129   1.465       .  S
C58          C59   1.380   1_545  A
C58         C953   1.488       .  S
C59          C60   1.367       .  A
C59          H62   1.082   1_565  S
C60          C61   1.383       .  A
C60          H63   1.083       .  S
C61         C929   1.482       .  S
N64          C68   1.367       .  A
N64          C65   1.366   1_565  A
N64        C1169   1.464   1_455  S
C65          C66   1.379   1_545  A
C65         C921   1.485       .  S
C66          C67   1.365       .  A
C66          H69   1.082   1_565  S
C67          C68   1.384       .  A
C67          H70   1.083       .  S
C68         C897   1.484       .  S
N71          C75   1.364       .  A
N71          C72   1.365       .  A
N71        C1073   1.463       .  S
C72          C73   1.387       .  A
C72         C865   1.486       .  S
C73          C74   1.368       .  A
C73          H76   1.083       .  S
C74          C75   1.379       .  A
C74          H77   1.082       .  S
C75         C881   1.486       .  S
N78          C82   1.369       .  A
N78          C79   1.370       .  A
N78        C1033   1.470       .  S
C79          C80   1.381       .  A
C79         C857   1.489       .  S
C80          C81   1.365       .  A
C80          H83   1.083       .  S
C81          C82   1.381       .  A
C81          H84   1.083       .  S
C82         C833   1.483       .  S
N85          C89   1.364       .  A
N85          C86   1.368       .  A
N85         C785   1.459       .  S
C86          C87   1.384       .  A
C86         C809   1.486       .  S
C87          C88   1.365       .  A
C87          H90   1.083       .  S
C88          C89   1.378       .  A
C88          H91   1.083       .  S
C89         C817   1.482       .  S
N92          C96   1.364       .  A
N92          C93   1.365       .  A
N92         C737   1.457       .  S
C93          C94   1.382       .  A
C93         C777   1.493       .  S
C94          C95   1.366       .  A
C94          H97   1.082       .  S
C95          C96   1.383       .  A
C95          H98   1.083       .  S
C96         C761   1.477       .  S
N99         C103   1.360       .  A
N99         C100   1.356       .  A
N99         C689   1.444       .  S
C100        C101   1.380       .  A
C100        C705   1.473       .  S
C101        C102   1.368       .  A
C101        H104   1.083       .  S
C102        C103   1.384       .  A
C102        H105   1.082       .  S
C103        C729   1.485       .  S
Zn106       O110   1.972       .  S
Zn106       O111   2.022       .  S
Zn106       O115   2.023       .  S
Zn106       O122   2.062       .  S
Zn107       O110   1.974       .  S
Zn107       O112   2.039       .  S
Zn107       O114   2.058       .  S
Zn107       O118   2.068       .  S
Zn108       O110   1.992       .  S
Zn108       O113   2.051       .  S
Zn108       O116   2.038       .  S
Zn108       O119   2.092       .  S
Zn109       O110   1.939       .  S
Zn109       O117   1.975       .  S
Zn109       O120   2.004       .  S
Zn109       O121   1.993       .  S
O111        C123   1.276       .  A
O112        C124   1.278       .  A
O113        C125   1.278       .  A
O114        C123   1.279       .  A
O115        C125   1.275       .  A
O116        C124   1.278       .  A
O117        C126   1.270       .  A
O118        C127   1.280       .  A
O119        C126   1.280       .  A
O120        C127   1.272       .  A
O121        C128   1.270       .  A
O122        C128   1.277       .  A
C123        C961   1.491       .  S
C124       C1153   1.487       .  S
C125       C1065   1.479       .  S
C126        C721   1.487       .  S
C127        C673   1.492       .  S
C128        C801   1.484       .  S
N129        C133   1.368       .  A
N129        C130   1.366       .  A
N129        C625   1.463       .  S
C130        C131   1.382       .  A
C130        C657   1.479       .  S
C131        C132   1.365       .  A
C131        H134   1.083       .  S
C132        C133   1.380       .  A
C132        H135   1.083       .  S
C133        C641   1.488       .  S
N136        C140   1.363       .  A
N136        C137   1.369       .  A
N136        C593   1.465       .  S
C137        C138   1.390       .  A
C137        C681   1.497       .  S
C138        C139   1.365       .  A
C138        H141   1.082       .  S
C139        C140   1.375       .  A
C139        H142   1.083       .  S
C140        C617   1.481       .  S
Zn143       O147   1.985       .  S
Zn143       O148   2.045       .  S
Zn143       O152   2.054       .  S
Zn143       O159   2.056       .  S
Zn144       O147   1.967       .  S
Zn144       O149   2.057       .  S
Zn144       O151   2.027       .  S
Zn144       O155   2.027       .  S
Zn145       O147   1.943       .  S
Zn145       O150   2.002       .  S
Zn145       O153   2.009       .  S
Zn145       O156   2.006       .  S
Zn146       O147   1.966       .  S
Zn146       O154   2.039       .  S
Zn146       O157   2.027       .  S
Zn146       O158   2.029       .  S
O148        C160   1.278       .  A
O149        C161   1.277       .  A
O150        C162   1.273       .  A
O151        C160   1.278       .  A
O152        C162   1.278       .  A
O153        C161   1.273       .  A
O154        C163   1.274       .  A
O155        C164   1.275       .  A
O156        C163   1.271       .  A
O157        C164   1.275       .  A
O158        C165   1.277       .  A
O159        C165   1.278       .  A
C160       C1049   1.489       .  S
C161        C665   1.489       .  S
C162        C945   1.487       .  S
C163        C609   1.474       .  S
C164        C585   1.481       .  S
C165       C1233   1.493       .  S
N166        C170   1.361       .  A
N166        C167   1.359       .  A
N166        C697   1.443       .  S
C167        C168   1.380       .  A
C167        C561   1.479       .  S
C168        C169   1.373       .  A
C168        H171   1.082       .  S
C169        C170   1.385       .  A
C169        H172   1.082       .  S
C170        C545   1.490       .  S
Zn173       O177   1.949       .  S
Zn173       O178   2.004       .  S
Zn173       O182   2.004       .  S
Zn173       O189   1.997       .  S
Zn174       O177   1.968       .  S
Zn174       O179   2.047       .  S
Zn174       O181   2.056       .  S
Zn174       O185   2.023       .  S
Zn175       O177   1.956       .  S
Zn175       O180   2.057       .  S
Zn175       O183   2.019       .  S
Zn175       O186   2.021       .  S
Zn176       O177   1.980       .  S
Zn176       O184   2.053       .  S
Zn176       O187   2.051       .  S
Zn176       O188   2.041       .  S
O178        C190   1.272       .  A
O179        C191   1.277       .  A
O180        C192   1.278       .  A
O181        C190   1.278       .  A
O182        C192   1.271       .  A
O183        C191   1.275       .  A
O184        C193   1.278       .  A
O185        C194   1.276       .  A
O186        C193   1.275       .  A
O187        C194   1.277       .  A
O188        C195   1.277       .  A
O189        C195   1.272       .  A
C190       C1145   1.484       .  S
C191        C537   1.484       .  S
C192       C1281   1.486       .  S
C193        C825   1.486       .  S
C194        C569   1.487       .  S
C195        C889   1.484       .  S
N196        C200   1.367       .  A
N196        C197   1.368       .  A
N196        C793   1.464       .  S
C197        C198   1.380       .  A
C197        C513   1.489       .  S
C198        C199   1.363       .  A
C198        H201   1.082       .  S
C199        C200   1.382       .  A
C199        H202   1.083       .  S
C200        C577   1.479       .  S
N203        C207   1.368       .  A
N203        C204   1.365       .  A
N203        C481   1.460       .  S
C204        C205   1.381       .  A
C204        C529   1.479       .  S
C205        C206   1.364       .  A
C205        H208   1.083       .  S
C206        C207   1.382       .  A
C206        H209   1.082       .  S
C207        C497   1.493       .  S
N210        C214   1.369       .  A
N210        C211   1.365       .  A
N210        C633   1.460       .  S
C211        C212   1.380       .  A
C211        C473   1.484       .  S
C212        C213   1.362       .  A
C212        H215   1.083       .  S
C213        C214   1.382       .  A
C213        H216   1.083       .  S
C214        C457   1.482       .  S
Zn217       O221   1.967       .  S
Zn217       O222   1.995       .  S
Zn217       O226   2.039       .  S
Zn217       O233   2.027       .  S
Zn218       O221   1.993       .  S
Zn218       O223   2.072       .  S
Zn218       O225   2.079       .  S
Zn218       O229   2.057       .  S
Zn219       O221   1.959       .  S
Zn219       O224   2.030       .  S
Zn219       O227   2.012       .  S
Zn219       O230   2.021       .  S
Zn220       O221   1.969       .  S
Zn220       O228   2.034       .  S
Zn220       O231   2.023       .  S
Zn220       O232   2.037       .  S
O222        C234   1.273       .  A
O223        C235   1.279       .  A
O224        C236   1.276       .  A
O225        C234   1.282       .  A
O226        C236   1.275       .  A
O227        C235   1.275       .  A
O228        C237   1.275       .  A
O229        C238   1.279       .  A
O230        C237   1.272       .  A
O231        C238   1.275       .  A
O232        C239   1.275       .  A
O233        C239   1.274       .  A
C234        C449   1.490       .  S
C235        C937   1.490       .  S
C236        C505   1.492       .  S
C237       C1001   1.471       .  S
C238        C873   1.482       .  S
C239        C521   1.488       .  S
N240        C244   1.368       .  A
N240        C241   1.368       .  A
N240        C601   1.465       .  S
C241        C242   1.383       .  A
C241        C425   1.492       .  S
C242        C243   1.365       .  A
C242        H245   1.082       .  S
C243        C244   1.380       .  A
C243        H246   1.083       .  S
C244        C433   1.481       .  S
Zn247       O251   1.982       .  S
Zn247       O252   2.049       .  S
Zn247       O256   2.057       .  S
Zn247       O263   2.057       .  S
Zn248       O251   1.952       .  S
Zn248       O253   2.014       .  S
Zn248       O255   2.022       .  S
Zn248       O259   2.020       .  S
Zn249       O251   1.973       .  S
Zn249       O254   2.017       .  S
Zn249       O257   2.046       .  S
Zn249       O260   2.053       .  S
Zn250       O251   1.971       .  S
Zn250       O258   2.018       .  S
Zn250       O261   2.049       .  S
Zn250       O262   2.024       .  S
O252        C264   1.277       .  A
O253        C265   1.274       .  A
O254        C266   1.275       .  A
O255        C264   1.273       .  A
O256        C266   1.278       .  A
O257        C265   1.276       .  A
O258        C267   1.274       .  A
O259        C268   1.275       .  A
O260        C267   1.279       .  A
O261        C268   1.277       .  A
O262        C269   1.275       .  A
O263        C269   1.280       .  A
C264       C1257   1.478       .  S
C265       C1201   1.486       .  S
C266        C841   1.487       .  S
C267        C649   1.490       .  S
C268        C417   1.491       .  S
C269        C401   1.485       .  S
N270        C274   1.373       .  A
N270        C271   1.370       .  A
N270        C489   1.464       .  S
C271        C272   1.380       .  A
C271        C385   1.484       .  S
C272        C273   1.361       .  A
C272        H275   1.083       .  S
C273        C274   1.381       .  A
C273        H276   1.083       .  S
C274        C377   1.484       .  S
N277        C281   1.366       .  A
N277        C278   1.365       .  A
N277        C745   1.459       .  S
C278        C279   1.381       .  A
C278        C409   1.483       .  S
C279        C280   1.366       .  A
C279        H282   1.083       .  S
C280        C281   1.382       .  A
C280        H283   1.082       .  S
C281        C353   1.489       .  S
Zn284       O288   1.962       .  S
Zn284       O289   2.027       .  S
Zn284       O293   2.035       .  S
Zn284       O300   2.023       .  S
Zn285       O288   1.963       .  S
Zn285       O290   2.022       .  S
Zn285       O292   2.041       .  S
Zn285       O296   2.019       .  S
Zn286       O288   1.976       .  S
Zn286       O291   2.037       .  S
Zn286       O294   2.025       .  S
Zn286       O297   2.038       .  S
Zn287       O288   1.968       .  S
Zn287       O295   2.033       .  S
Zn287       O298   2.033       .  S
Zn287       O299   2.018       .  S
O289        C301   1.275       .  A
O290        C302   1.277       .  A
O291        C303   1.276       .  A
O292        C301   1.275       .  A
O293        C303   1.277       .  A
O294        C302   1.275       .  A
O295        C304   1.277       .  A
O296        C305   1.274       .  A
O297        C304   1.276       .  A
O298        C305   1.273       .  A
O299        C306   1.274       .  A
O300        C306   1.274       .  A
C301       C1193   1.490       .  S
C302        C465   1.481       .  S
C303        C393   1.491       .  S
C304        C361   1.491       .  S
C305       C1089   1.481       .  S
C306       C1009   1.476       .  S
Zn307       O311   1.964       .  S
Zn307       O312   2.022       .  S
Zn307       O316   2.023       .  S
Zn307       O323   2.023       .  S
Zn308       O311   1.968       .  S
Zn308       O313   2.036       .  S
Zn308       O315   2.040       .  S
Zn308       O319   2.019       .  S
Zn309       O311   1.979       .  S
Zn309       O314   2.059       .  S
Zn309       O317   2.055       .  S
Zn309       O320   2.036       .  S
Zn310       O311   1.977       .  S
Zn310       O318   2.034       .  S
Zn310       O321   2.037       .  S
Zn310       O322   2.067       .  S
O312        C324   1.275       .  A
O313        C325   1.274       .  A
O314        C326   1.279       .  A
O315        C324   1.277       .  A
O316        C326   1.275       .  A
O317        C325   1.277       .  A
O318        C327   1.276       .  A
O319        C328   1.274       .  A
O320        C327   1.276       .  A
O321        C328   1.275       .  A
O322        C329   1.279       .  A
O323        C329   1.274       .  A
C324        C769   1.488       .  S
C325       C1105   1.481       .  S
C326        C553   1.491       .  S
C327        C905   1.477       .  S
C328       C1297   1.476       .  S
C329        C369   1.495       .  S
Zn330       O334   1.977       .  S
Zn330       O335   2.039       .  S
Zn330       O339   2.053       .  S
Zn330       O346   2.031       .  S
Zn331       O334   1.953       .  S
Zn331       O336   2.027       .  S
Zn331       O338   1.997       .  S
Zn331       O342   2.001       .  S
Zn332       O334   1.966       .  S
Zn332       O337   2.024       .  S
Zn332       O340   2.047       .  S
Zn332       O343   2.030       .  S
Zn333       O334   1.976       .  S
Zn333       O341   2.016       .  S
Zn333       O344   2.036       .  S
Zn333       O345   2.043       .  S
O335        C347   1.274       .  A
O336        C348   1.276       .  A
O337        C349   1.276       .  A
O338        C347   1.272       .  A
O339        C349   1.279       .  A
O340        C348   1.277       .  A
O341        C350   1.275       .  A
O342        C351   1.271       .  A
O343        C350   1.275       .  A
O344        C351   1.275       .  A
O345        C352   1.275       .  A
O346        C352   1.276       .  A
C347        C753   1.478       .  S
C348        C849   1.491       .  S
C349        C985   1.492       .  S
C350        C913   1.484       .  S
C351        C713   1.476       .  S
C352        C441   1.485       .  S
C353        C354   1.404       .  A
C353        C358   1.409       .  A
C354        C355   1.402       .  A
C354        H363   1.083       .  S
C355        C356   1.405       .  A
C355        H364   1.083       .  S
C356        C362   1.410       .  A
C356        C357   1.413       .  A
C357        C359   1.402       .  A
C357        C358   1.406       .  A
C358        H365   1.084       .  S
C359        C360   1.398       .  A
C359        H366   1.083       .  S
C360        C361   1.407       .  A
C360        H367   1.083       .  S
C361        C362   1.411       .  A
C362        H368   1.083       .  S
C369        C370   1.409       .  A
C369        C374   1.410       .  A
C370        C371   1.400       .  A
C370        H379   1.083       .  S
C371        C372   1.402       .  A
C371        H380   1.083       .  S
C372        C378   1.411       .  A
C372        C373   1.414       .  A
C373        C375   1.403       .  A
C373        C374   1.412       .  A
C374        H381   1.083       .  S
C375        C376   1.401       .  A
C375        H382   1.083       .  S
C376        C377   1.406       .  A
C376        H383   1.084       .  S
C377        C378   1.408       .  A
C378        H384   1.084       .  S
C385        C386   1.405       .  A
C385        C390   1.406       .  A
C386        C387   1.395       .  A
C386        H395   1.084       .  S
C387        C388   1.400       .  A
C387        H396   1.083       .  S
C388        C394   1.406       .  A
C388        C389   1.415       .  A
C389        C391   1.403       .  A
C389        C390   1.412       .  A
C390        H397   1.084       .  S
C391        C392   1.402       .  A
C391        H398   1.083       .  S
C392        C393   1.408       .  A
C392        H399   1.083       .  S
C393        C394   1.407       .  A
C394        H400   1.084       .  S
C401        C402   1.407       .  A
C401        C406   1.406       .  A
C402        C403   1.400       .  A
C402        H411   1.084       .  S
C403        C404   1.403       .  A
C403        H412   1.083       .  S
C404        C410   1.409       .  A
C404        C405   1.415       .  A
C405        C407   1.403       .  A
C405        C406   1.409       .  A
C406        H413   1.083       .  S
C407        C408   1.399       .  A
C407        H414   1.083       .  S
C408        C409   1.404       .  A
C408        H415   1.084       .  S
C409        C410   1.408       .  A
C410        H416   1.084       .  S
C417        C418   1.408       .  A
C417        C422   1.412       .  A
C418        C419   1.396       .  A
C418        H427   1.083       .  S
C419        C420   1.401       .  A
C419        H428   1.083       .  S
C420        C426   1.404       .  A
C420        C421   1.413       .  A
C421        C423   1.406       .  A
C421        C422   1.412       .  A
C422        H429   1.083       .  S
C423        C424   1.404       .  A
C423        H430   1.083       .  S
C424        C425   1.405       .  A
C424        H431   1.083       .  S
C425        C426   1.408       .  A
C426        H432   1.084       .  S
C433        C434   1.404       .  A
C433        C438   1.404       .  A
C434        C435   1.403       .  A
C434        H443   1.083       .  S
C435        C436   1.406       .  A
C435        H444   1.083       .  S
C436        C442   1.412       .  A
C436        C437   1.415       .  A
C437        C439   1.401       .  A
C437        C438   1.406       .  A
C438        H445   1.084       .  S
C439        C440   1.397       .  A
C439        H446   1.083       .  S
C440        C441   1.405       .  A
C440        H447   1.084       .  S
C441        C442   1.409       .  A
C442        H448   1.084       .  S
C449        C450   1.409       .  A
C449        C454   1.408       .  A
C450        C451   1.396       .  A
C450        H459   1.083       .  S
C451        C452   1.399       .  A
C451        H460   1.083       .  S
C452        C458   1.408       .  A
C452        C453   1.416       .  A
C453        C455   1.403       .  A
C453        C454   1.412       .  A
C454        H461   1.084       .  S
C455        C456   1.400       .  A
C455        H462   1.083       .  S
C456        C457   1.406       .  A
C456        H463   1.083       .  S
C457        C458   1.405       .  A
C458        H464   1.084       .  S
C465        C466   1.405       .  A
C465        C470   1.410       .  A
C466        C467   1.394       .  A
C466        H475   1.083       .  S
C467        C468   1.400       .  A
C467        H476   1.083       .  S
C468        C474   1.400       .  A
C468        C469   1.413       .  A
C469        C471   1.407       .  A
C469        C470   1.409       .  A
C470        H477   1.084       .  S
C471        C472   1.404       .  A
C471        H478   1.083       .  S
C472        C473   1.404       .  A
C472        H479   1.083       .  S
C473        C474   1.404       .  A
C474        H480   1.084       .  S
C481        C482   1.412       .  A
C481        C486   1.416       .  A
C482        C483   1.398       .  A
C482        H491   1.081       .  S
C483        C484   1.401       .  A
C483        H492   1.084       .  S
C484        C490   1.409       .  A
C484        C485   1.409       .  A
C485        C487   1.404       .  A
C485        C486   1.415       .  A
C486        H493   1.082       .  S
C487        C488   1.406       .  A
C487        H494   1.084       .  S
C488        C489   1.411       .  A
C488        H495   1.077       .  S
C489        C490   1.417       .  A
C490        H496   1.080       .  S
C497        C498   1.406       .  A
C497        C502   1.409       .  A
C498        C499   1.405       .  A
C498        H507   1.083       .  S
C499        C500   1.407       .  A
C499        H508   1.083       .  S
C500        C506   1.413       .  A
C500        C501   1.412       .  A
C501        C503   1.401       .  A
C501        C502   1.404       .  A
C502        H509   1.083       .  S
C503        C504   1.396       .  A
C503        H510   1.083       .  S
C504        C505   1.407       .  A
C504        H511   1.083       .  S
C505        C506   1.413       .  A
C506        H512   1.083       .  S
C513        C514   1.406       .  A
C513        C518   1.408       .  A
C514        C515   1.395       .  A
C514        H523   1.083       .  S
C515        C516   1.400       .  A
C515        H524   1.083       .  S
C516        C522   1.407       .  A
C516        C517   1.415       .  A
C517        C519   1.403       .  A
C517        C518   1.412       .  A
C518        H525   1.083       .  S
C519        C520   1.402       .  A
C519        H526   1.083       .  S
C520        C521   1.408       .  A
C520        H527   1.083       .  S
C521        C522   1.406       .  A
C522        H528   1.084       .  S
C529        C530   1.404       .  A
C529        C534   1.404       .  A
C530        C531   1.402       .  A
C530        H539   1.083       .  S
C531        C532   1.405       .  A
C531        H540   1.083       .  S
C532        C538   1.411       .  A
C532        C533   1.415       .  A
C533        C535   1.401       .  A
C533        C534   1.405       .  A
C534        H541   1.085       .  S
C535        C536   1.396       .  A
C535        H542   1.084       .  S
C536        C537   1.406       .  A
C536        H543   1.083       .  S
C537        C538   1.408       .  A
C538        H544   1.084       .  S
C545        C546   1.407       .  A
C545        C550   1.408       .  A
C546        C547   1.399       .  A
C546        H555   1.083       .  S
C547        C548   1.402       .  A
C547        H556   1.084       .  S
C548        C554   1.411       .  A
C548        C549   1.415       .  A
C549        C551   1.402       .  A
C549        C550   1.411       .  A
C550        H557   1.084       .  S
C551        C552   1.400       .  A
C551        H558   1.084       .  S
C552        C553   1.409       .  A
C552        H559   1.083       .  S
C553        C554   1.408       .  A
C554        H560   1.084       .  S
C561        C562   1.403       .  A
C561        C566   1.402       .  A
C562        C563   1.406       .  A
C562        H571   1.083       .  S
C563        C564   1.408       .  A
C563        H572   1.083       .  S
C564        C570   1.414       .  A
C564        C565   1.415       .  A
C565        C567   1.400       .  A
C565        C566   1.404       .  A
C566        H573   1.085       .  S
C567        C568   1.395       .  A
C567        H574   1.083       .  S
C568        C569   1.406       .  A
C568        H575   1.083       .  S
C569        C570   1.412       .  A
C570        H576   1.084       .  S
C577        C578   1.404       .  A
C577        C582   1.405       .  A
C578        C579   1.399       .  A
C578        H587   1.084       .  S
C579        C580   1.403       .  A
C579        H588   1.083       .  S
C580        C586   1.406       .  A
C580        C581   1.415       .  A
C581        C583   1.402       .  A
C581        C582   1.406       .  A
C582        H589   1.084       .  S
C583        C584   1.398       .  A
C583        H590   1.083       .  S
C584        C585   1.406       .  A
C584        H591   1.083       .  S
C585        C586   1.406       .  A
C586        H592   1.084       .  S
C593        C594   1.417       .  A
C593        C598   1.416       .  A
C594        C595   1.396       .  A
C594        H603   1.079       .  S
C595        C596   1.397       .  A
C595        H604   1.084       .  S
C596        C602   1.409       .  A
C596        C597   1.410       .  A
C597        C599   1.402       .  A
C597        C598   1.417       .  A
C598        H605   1.080       .  S
C599        C600   1.404       .  A
C599        H606   1.083       .  S
C600        C601   1.414       .  A
C600        H607   1.077       .  S
C601        C602   1.415       .  A
C602        H608   1.080       .  S
C609        C610   1.403       .  A
C609        C614   1.406       .  A
C610        C611   1.395       .  A
C610        H619   1.084       .  S
C611        C612   1.400       .  A
C611        H620   1.083       .  S
C612        C618   1.403       .  A
C612        C613   1.415       .  A
C613        C615   1.405       .  A
C613        C614   1.410       .  A
C614        H621   1.084       .  S
C615        C616   1.402       .  A
C615        H622   1.083       .  S
C616        C617   1.404       .  A
C616        H623   1.084       .  S
C617        C618   1.403       .  A
C618        H624   1.084       .  S
C625        C626   1.413       .  A
C625        C630   1.418       .  A
C626        C627   1.397       .  A
C626        H635   1.080       .  S
C627        C628   1.400       .  A
C627        H636   1.084       .  S
C628        C634   1.407       .  A
C628        C629   1.409       .  A
C629        C631   1.406       .  A
C629        C630   1.415       .  A
C630        H637   1.079       .  S
C631        C632   1.406       .  A
C631        H638   1.083       .  S
C632        C633   1.409       .  A
C632        H639   1.079       .  S
C633        C634   1.415       .  A
C634        H640   1.081       .  S
C641        C642   1.406       .  A
C641        C646   1.406       .  A
C642        C643   1.398       .  A
C642        H651   1.084       .  S
C643        C644   1.401       .  A
C643        H652   1.083       .  S
C644        C650   1.409       .  A
C644        C645   1.415       .  A
C645        C647   1.402       .  A
C645        C646   1.411       .  A
C646        H653   1.083       .  S
C647        C648   1.400       .  A
C647        H654   1.083       .  S
C648        C649   1.409       .  A
C648        H655   1.083       .  S
C649        C650   1.408       .  A
C650        H656   1.083       .  S
C657        C658   1.404       .  A
C657        C662   1.403       .  A
C658        C659   1.403       .  A
C658        H667   1.083       .  S
C659        C660   1.406       .  A
C659        H668   1.083       .  S
C660        C666   1.413       .  A
C660        C661   1.415       .  A
C661        C663   1.399       .  A
C661        C662   1.404       .  A
C662        H669   1.085       .  S
C663        C664   1.395       .  A
C663        H670   1.083       .  S
C664        C665   1.408       .  A
C664        H671   1.083       .  S
C665        C666   1.411       .  A
C666        H672   1.083       .  S
C673        C674   1.406       .  A
C673        C678   1.413       .  A
C674        C675   1.401       .  A
C674        H683   1.083       .  S
C675        C676   1.405       .  A
C675        H684   1.083       .  S
C676        C682   1.407       .  A
C676        C677   1.411       .  A
C677        C679   1.405       .  A
C677        C678   1.408       .  A
C678        H685   1.084       .  S
C679        C680   1.402       .  A
C679        H686   1.083       .  S
C680        C681   1.407       .  A
C680        H687   1.083       .  S
C681        C682   1.413       .  A
C682        H688   1.084       .  S
C689        C690   1.403       .  A
C689        C694   1.410       .  A
C690        C691   1.404       .  A
C690        H699   1.083       .  S
C691        C692   1.407       .  A
C691        H700   1.083       .  S
C692        C698   1.409       .  A
C692        C693   1.412       .  A
C693        C695   1.405       .  A
C693        C694   1.405       .  A
C694        H701   1.083       .  S
C695        C696   1.399       .  A
C695        H702   1.083       .  S
C696        C697   1.402       .  A
C696        H703   1.083       .  S
C697        C698   1.411       .  A
C698        H704   1.083       .  S
C705        C706   1.404       .  A
C705        C710   1.401       .  A
C706        C707   1.398       .  A
C706        H715   1.084       .  S
C707        C708   1.402       .  A
C707        H716   1.083       .  S
C708        C714   1.407       .  A
C708        C709   1.416       .  A
C709        C711   1.400       .  A
C709        C710   1.404       .  A
C710        H717   1.084       .  S
C711        C712   1.395       .  A
C711        H718   1.083       .  S
C712        C713   1.406       .  A
C712        H719   1.084       .  S
C713        C714   1.405       .  A
C714        H720   1.084       .  S
C721        C722   1.408       .  A
C721        C726   1.410       .  A
C722        C723   1.391       .  A
C722        H731   1.084       .  S
C723        C724   1.397       .  A
C723        H732   1.083       .  S
C724        C730   1.403       .  A
C724        C725   1.416       .  A
C725        C727   1.407       .  A
C725        C726   1.418       .  A
C726        H733   1.083       .  S
C727        C728   1.406       .  A
C727        H734   1.083       .  S
C728        C729   1.407       .  A
C728        H735   1.083       .  S
C729        C730   1.402       .  A
C730        H736   1.084       .  S
C737        C738   1.411       .  A
C737        C742   1.414       .  A
C738        C739   1.395       .  A
C738        H747   1.081       .  S
C739        C740   1.399       .  A
C739        H748   1.083       .  S
C740        C746   1.406       .  A
C740        C741   1.411       .  A
C741        C743   1.404       .  A
C741        C742   1.414       .  A
C742        H749   1.082       .  S
C743        C744   1.404       .  A
C743        H750   1.083       .  S
C744        C745   1.411       .  A
C744        H751   1.078       .  S
C745        C746   1.413       .  A
C746        H752   1.082       .  S
C753        C754   1.406       .  A
C753        C758   1.407       .  A
C754        C755   1.393       .  A
C754        H763   1.084       .  S
C755        C756   1.399       .  A
C755        H764   1.083       .  S
C756        C762   1.401       .  A
C756        C757   1.415       .  A
C757        C759   1.405       .  A
C757        C758   1.410       .  A
C758        H765   1.083       .  S
C759        C760   1.402       .  A
C759        H766   1.083       .  S
C760        C761   1.405       .  A
C760        H767   1.083       .  S
C761        C762   1.402       .  A
C762        H768   1.084       .  S
C769        C770   1.406       .  A
C769        C774   1.412       .  A
C770        C771   1.398       .  A
C770        H779   1.083       .  S
C771        C772   1.402       .  A
C771        H780   1.083       .  S
C772        C778   1.403       .  A
C772        C773   1.411       .  A
C773        C775   1.405       .  A
C773        C774   1.408       .  A
C774        H781   1.083       .  S
C775        C776   1.402       .  A
C775        H782   1.083       .  S
C776        C777   1.406       .  A
C776        H783   1.083       .  S
C777        C778   1.409       .  A
C778        H784   1.083       .  S
C785        C786   1.410       .  A
C785        C790   1.414       .  A
C786        C787   1.406       .  A
C786        H795   1.078       .  S
C787        C788   1.405       .  A
C787        H796   1.084       .  S
C788        C794   1.415       .  A
C788        C789   1.409       .  A
C789        C791   1.398       .  A
C789        C790   1.406       .  A
C790        H797   1.083       .  S
C791        C792   1.396       .  A
C791        H798   1.084       .  S
C792        C793   1.414       .  A
C792        H799   1.078       .  S
C793        C794   1.419       .  A
C794        H800   1.081       .  S
C801        C802   1.407       .  A
C801        C806   1.408       .  A
C802        C803   1.394       .  A
C802        H811   1.084       .  S
C803        C804   1.398       .  A
C803        H812   1.083       .  S
C804        C810   1.405       .  A
C804        C805   1.416       .  A
C805        C807   1.403       .  A
C805        C806   1.413       .  A
C806        H813   1.084       .  S
C807        C808   1.402       .  A
C807        H814   1.083       .  S
C808        C809   1.408       .  A
C808        H815   1.083       .  S
C809        C810   1.404       .  A
C810        H816   1.084       .  S
C817        C818   1.404       .  A
C817        C822   1.405       .  A
C818        C819   1.403       .  A
C818        H827   1.084       .  S
C819        C820   1.406       .  A
C819        H828   1.083       .  S
C820        C826   1.412       .  A
C820        C821   1.414       .  A
C821        C823   1.401       .  A
C821        C822   1.405       .  A
C822        H829   1.084       .  S
C823        C824   1.397       .  A
C823        H830   1.083       .  S
C824        C825   1.406       .  A
C824        H831   1.083       .  S
C825        C826   1.410       .  A
C826        H832   1.084       .  S
C833        C834   1.404       .  A
C833        C838   1.405       .  A
C834        C835   1.402       .  A
C834        H843   1.083       .  S
C835        C836   1.404       .  A
C835        H844   1.083       .  S
C836        C842   1.412       .  A
C836        C837   1.415       .  A
C837        C839   1.401       .  A
C837        C838   1.408       .  A
C838        H845   1.084       .  S
C839        C840   1.397       .  A
C839        H846   1.083       .  S
C840        C841   1.407       .  A
C840        H847   1.084       .  S
C841        C842   1.408       .  A
C842        H848   1.084       .  S
C849        C850   1.408       .  A
C849        C854   1.411       .  A
C850        C851   1.399       .  A
C850        H859   1.083       .  S
C851        C852   1.402       .  A
C851        H860   1.083       .  S
C852        C858   1.406       .  A
C852        C853   1.413       .  A
C853        C855   1.405       .  A
C853        C854   1.410       .  A
C854        H861   1.083       .  S
C855        C856   1.401   1_455  A
C855        H862   1.083       .  S
C856        C857   1.405       .  A
C856        H863   1.083       .  S
C857        C858   1.408   1_655  A
C858        H864   1.084   1_455  S
C865        C866   1.406       .  A
C865        C870   1.408       .  A
C866        C867   1.401       .  A
C866        H875   1.083       .  S
C867        C868   1.404       .  A
C867        H876   1.083       .  S
C868        C874   1.410       .  A
C868        C869   1.414       .  A
C869        C871   1.403       .  A
C869        C870   1.408       .  A
C870        H877   1.084       .  S
C871        C872   1.399       .  A
C871        H878   1.083       .  S
C872        C873   1.405       .  A
C872        H879   1.084       .  S
C873        C874   1.407       .  A
C874        H880   1.084       .  S
C881        C882   1.405       .  A
C881        C886   1.408       .  A
C882        C883   1.396   1_655  A
C882        H891   1.083       .  S
C883        C884   1.402       .  A
C883        H892   1.083       .  S
C884        C890   1.402       .  A
C884        C885   1.412       .  A
C885        C887   1.403       .  A
C885        C886   1.405   1_455  A
C886        H893   1.083       .  S
C887        C888   1.400       .  A
C887        H894   1.083       .  S
C888        C889   1.406       .  A
C888        H895   1.083       .  S
C889        C890   1.409       .  A
C890        H896   1.084       .  S
C897        C898   1.405       .  A
C897        C902   1.407       .  A
C898        C899   1.401       .  A
C898        H907   1.084       .  S
C899        C900   1.404       .  A
C899        H908   1.083       .  S
C900        C906   1.408       .  A
C900        C901   1.414       .  A
C901        C903   1.404       .  A
C901        C902   1.406       .  A
C902        H909   1.084       .  S
C903        C904   1.400       .  A
C903        H910   1.083       .  S
C904        C905   1.402       .  A
C904        H911   1.083       .  S
C905        C906   1.407       .  A
C906        H912   1.084       .  S
C913        C914   1.406       .  A
C913        C918   1.410       .  A
C914        C915   1.395       .  A
C914        H923   1.083       .  S
C915        C916   1.400       .  A
C915        H924   1.083       .  S
C916        C922   1.402       .  A
C916        C917   1.413       .  A
C917        C919   1.405       .  A
C917        C918   1.407       .  A
C918        H925   1.083       .  S
C919        C920   1.401       .  A
C919        H926   1.083       .  S
C920        C921   1.404       .  A
C920        H927   1.083       .  S
C921        C922   1.405       .  A
C922        H928   1.084       .  S
C929        C930   1.404       .  A
C929        C934   1.404       .  A
C930        C931   1.404       .  A
C930        H939   1.083       .  S
C931        C932   1.406       .  A
C931        H940   1.083       .  S
C932        C938   1.414       .  A
C932        C933   1.415       .  A
C933        C935   1.399       .  A
C933        C934   1.406       .  A
C934        H941   1.084       .  S
C935        C936   1.395       .  A
C935        H942   1.083       .  S
C936        C937   1.408       .  A
C936        H943   1.084       .  S
C937        C938   1.411       .  A
C938        H944   1.083       .  S
C945        C946   1.409       .  A
C945        C950   1.408       .  A
C946        C947   1.397       .  A
C946        H955   1.084       .  S
C947        C948   1.401       .  A
C947        H956   1.083       .  S
C948        C954   1.405       .  A
C948        C949   1.414       .  A
C949        C951   1.403       .  A
C949        C950   1.408       .  A
C950        H957   1.083       .  S
C951        C952   1.400       .  A
C951        H958   1.083       .  S
C952        C953   1.405       .  A
C952        H959   1.083       .  S
C953        C954   1.407       .  A
C954        H960   1.084       .  S
C961        C962   1.408       .  A
C961        C966   1.411       .  A
C962        C963   1.398       .  A
C962        H971   1.084       .  S
C963        C964   1.401       .  A
C963        H972   1.083       .  S
C964        C970   1.407       .  A
C964        C965   1.414       .  A
C965        C967   1.406       .  A
C965        C966   1.413       .  A
C966        H973   1.083       .  S
C967        C968   1.403       .  A
C967        H974   1.083       .  S
C968        C969   1.404       .  A
C968        H975   1.083       .  S
C969        C970   1.406       .  A
C970        H976   1.084       .  S
C977        C978   1.409       .  A
C977        C982   1.407       .  A
C978        C979   1.399       .  A
C978        H987   1.083       .  S
C979        C980   1.401       .  A
C979        H988   1.083       .  S
C980        C986   1.411       .  A
C980        C981   1.415       .  A
C981        C983   1.400       .  A
C981        C982   1.410       .  A
C982        H989   1.083       .  S
C983        C984   1.398       .  A
C983        H990   1.083       .  S
C984        C985   1.409       .  A
C984        H991   1.083       .  S
C985        C986   1.410       .  A
C986        H992   1.084       .  S
C993        C994   1.407       .  A
C993        C998   1.410       .  A
C994        C995   1.402       .  A
C994       H1003   1.082       .  S
C995        C996   1.404       .  A
C995       H1004   1.083       .  S
C996       C1002   1.409       .  A
C996        C997   1.413       .  A
C997        C999   1.403       .  A
C997        C998   1.404       .  A
C998       H1005   1.083       .  S
C999       C1000   1.397       .  A
C999       H1006   1.084       .  S
C1000      C1001   1.401       .  A
C1000      H1007   1.084       .  S
C1001      C1002   1.406       .  A
C1002      H1008   1.084       .  S
C1009      C1010   1.404       .  A
C1009      C1014   1.405       .  A
C1010      C1011   1.399       .  A
C1010      H1019   1.083       .  S
C1011      C1012   1.404       .  A
C1011      H1020   1.083       .  S
C1012      C1018   1.406       .  A
C1012      C1013   1.414       .  A
C1013      C1015   1.402       .  A
C1013      C1014   1.403       .  A
C1014      H1021   1.084       .  S
C1015      C1016   1.397       .  A
C1015      H1022   1.083       .  S
C1016      C1017   1.404       .  A
C1016      H1023   1.084       .  S
C1017      C1018   1.406       .  A
C1018      H1024   1.084       .  S
C1025      C1026   1.416       .  A
C1025      C1030   1.416       .  A
C1026      C1027   1.400       .  A
C1026      H1035   1.077       .  S
C1027      C1028   1.400   1_556  A
C1027      H1036   1.085   1_556  S
C1028      C1034   1.412       .  A
C1028      C1029   1.408       .  A
C1029      C1031   1.398       .  A
C1029      C1030   1.412   1_554  A
C1030      H1037   1.082       .  S
C1031      C1032   1.399       .  A
C1031      H1038   1.085       .  S
C1032      C1033   1.417       .  A
C1032      H1039   1.073       .  S
C1033      C1034   1.418       .  A
C1034      H1040   1.080       .  S
C1041      C1042   1.406       .  A
C1041      C1046   1.406       .  A
C1042      C1043   1.403       .  A
C1042      H1051   1.083       .  S
C1043      C1044   1.406       .  A
C1043      H1052   1.083       .  S
C1044      C1050   1.411       .  A
C1044      C1045   1.413       .  A
C1045      C1047   1.400       .  A
C1045      C1046   1.403       .  A
C1046      H1053   1.084       .  S
C1047      C1048   1.395       .  A
C1047      H1054   1.083       .  S
C1048      C1049   1.407       .  A
C1048      H1055   1.083       .  S
C1049      C1050   1.412       .  A
C1050      H1056   1.083       .  S
C1057      C1058   1.405       .  A
C1057      C1062   1.408       .  A
C1058      C1059   1.403       .  A
C1058      H1067   1.084       .  S
C1059      C1060   1.406   1_655  A
C1059      H1068   1.083       .  S
C1060      C1066   1.411       .  A
C1060      C1061   1.414       .  A
C1061      C1063   1.403       .  A
C1061      C1062   1.406   1_455  A
C1062      H1069   1.084   1_655  S
C1063      C1064   1.398       .  A
C1063      H1070   1.083       .  S
C1064      C1065   1.402       .  A
C1064      H1071   1.084       .  S
C1065      C1066   1.408       .  A
C1066      H1072   1.083       .  S
C1073      C1074   1.415       .  A
C1073      C1078   1.415       .  A
C1074      C1075   1.395       .  A
C1074      H1083   1.079       .  S
C1075      C1076   1.397       .  A
C1075      H1084   1.084       .  S
C1076      C1082   1.409   1_556  A
C1076      C1077   1.411       .  A
C1077      C1079   1.403   1_556  A
C1077      C1078   1.416       .  A
C1078      H1085   1.081       .  S
C1079      C1080   1.404       .  A
C1079      H1086   1.083   1_554  S
C1080      C1081   1.413       .  A
C1080      H1087   1.079       .  S
C1081      C1082   1.411       .  A
C1082      H1088   1.082       .  S
C1089      C1090   1.405       .  A
C1089      C1094   1.408       .  A
C1090      C1091   1.395       .  A
C1090      H1099   1.083       .  S
C1091      C1092   1.400       .  A
C1091      H1100   1.084       .  S
C1092      C1098   1.403       .  A
C1092      C1093   1.415       .  A
C1093      C1095   1.405       .  A
C1093      C1094   1.410       .  A
C1094      H1101   1.084       .  S
C1095      C1096   1.402       .  A
C1095      H1102   1.083       .  S
C1096      C1097   1.404       .  A
C1096      H1103   1.083       .  S
C1097      C1098   1.402       .  A
C1098      H1104   1.085       .  S
C1105      C1106   1.401       .  A
C1105      C1110   1.412       .  A
C1106      C1107   1.398       .  A
C1106      H1115   1.084       .  S
C1107      C1108   1.403       .  A
C1107      H1116   1.083       .  S
C1108      C1114   1.405   1_455  A
C1108      C1109   1.413       .  A
C1109      C1111   1.409       .  A
C1109      C1110   1.416       .  A
C1110      H1117   1.083       .  S
C1111      C1112   1.408   1_455  A
C1111      H1118   1.083       .  S
C1112      C1113   1.405       .  A
C1112      H1119   1.083       .  S
C1113      C1114   1.409       .  A
C1114      H1120   1.084       .  S
C1121      C1122   1.413       .  A
C1121      C1126   1.415   1_565  A
C1122      C1123   1.402       .  A
C1122      H1131   1.075       .  S
C1123      C1124   1.402       .  A
C1123      H1132   1.084       .  S
C1124      C1130   1.412       .  A
C1124      C1125   1.408   1_565  A
C1125      C1127   1.397       .  A
C1125      C1126   1.407       .  A
C1126      H1133   1.082       .  S
C1127      C1128   1.396       .  A
C1127      H1134   1.085       .  S
C1128      C1129   1.416   1_545  A
C1128      H1135   1.076       .  S
C1129      C1130   1.417       .  A
C1130      H1136   1.080       .  S
C1137      C1138   1.406       .  A
C1137      C1142   1.406       .  A
C1138      C1139   1.399       .  A
C1138      H1147   1.084       .  S
C1139      C1140   1.402       .  A
C1139      H1148   1.083       .  S
C1140      C1146   1.409       .  A
C1140      C1141   1.415       .  A
C1141      C1143   1.401       .  A
C1141      C1142   1.407       .  A
C1142      H1149   1.084       .  S
C1143      C1144   1.398       .  A
C1143      H1150   1.083       .  S
C1144      C1145   1.407       .  A
C1144      H1151   1.084       .  S
C1145      C1146   1.406       .  A
C1146      H1152   1.083       .  S
C1153      C1154   1.407       .  A
C1153      C1158   1.409       .  A
C1154      C1155   1.401       .  A
C1154      H1163   1.083       .  S
C1155      C1156   1.403       .  A
C1155      H1164   1.083       .  S
C1156      C1162   1.408       .  A
C1156      C1157   1.414       .  A
C1157      C1159   1.403       .  A
C1157      C1158   1.407       .  A
C1158      H1165   1.084       .  S
C1159      C1160   1.399       .  A
C1159      H1166   1.083       .  S
C1160      C1161   1.403       .  A
C1160      H1167   1.084       .  S
C1161      C1162   1.407       .  A
C1162      H1168   1.084       .  S
C1169      C1170   1.416   1_565  A
C1169      C1174   1.418       .  A
C1170      C1171   1.394       .  A
C1170      H1179   1.077       .  S
C1171      C1172   1.397   1_545  A
C1171      H1180   1.084       .  S
C1172      C1178   1.405       .  A
C1172      C1173   1.408       .  A
C1173      C1175   1.403       .  A
C1173      C1174   1.414       .  A
C1174      H1181   1.079       .  S
C1175      C1176   1.404       .  A
C1175      H1182   1.083       .  S
C1176      C1177   1.413       .  A
C1176      H1183   1.079       .  S
C1177      C1178   1.414       .  A
C1178      H1184   1.079   1_565  S
C1185      C1186   1.404       .  A
C1185      C1190   1.403       .  A
C1186      C1187   1.404       .  A
C1186      H1195   1.083       .  S
C1187      C1188   1.406       .  A
C1187      H1196   1.084       .  S
C1188      C1194   1.412       .  A
C1188      C1189   1.414       .  A
C1189      C1191   1.400       .  A
C1189      C1190   1.404       .  A
C1190      H1197   1.086       .  S
C1191      C1192   1.396       .  A
C1191      H1198   1.084       .  S
C1192      C1193   1.407       .  A
C1192      H1199   1.083       .  S
C1193      C1194   1.412       .  A
C1194      H1200   1.085       .  S
C1201      C1202   1.407       .  A
C1201      C1206   1.409       .  A
C1202      C1203   1.396       .  A
C1202      H1211   1.083       .  S
C1203      C1204   1.400       .  A
C1203      H1212   1.084       .  S
C1204      C1210   1.406       .  A
C1204      C1205   1.416       .  A
C1205      C1207   1.404       .  A
C1205      C1206   1.411       .  A
C1206      H1213   1.084       .  S
C1207      C1208   1.401       .  A
C1207      H1214   1.084       .  S
C1208      C1209   1.405       .  A
C1208      H1215   1.083       .  S
C1209      C1210   1.403       .  A
C1210      H1216   1.085       .  S
C1217      C1218   1.414       .  A
C1217      C1222   1.415   1_556  A
C1218      C1219   1.397   1_545  A
C1218      H1227   1.080       .  S
C1219      C1220   1.398       .  A
C1219      H1228   1.084       .  S
C1220      C1226   1.408       .  A
C1220      C1221   1.410   1_556  A
C1221      C1223   1.402       .  A
C1221      C1222   1.414   1_565  A
C1222      H1229   1.080       .  S
C1223      C1224   1.402       .  A
C1223      H1230   1.084       .  S
C1224      C1225   1.413       .  A
C1224      H1231   1.077       .  S
C1225      C1226   1.413   1_554  A
C1226      H1232   1.082       .  S
C1233      C1234   1.407       .  A
C1233      C1238   1.413       .  A
C1234      C1235   1.396       .  A
C1234      H1243   1.083       .  S
C1235      C1236   1.400       .  A
C1235      H1244   1.083       .  S
C1236      C1242   1.405       .  A
C1236      C1237   1.413       .  A
C1237      C1239   1.407       .  A
C1237      C1238   1.415       .  A
C1238      H1245   1.083       .  S
C1239      C1240   1.406       .  A
C1239      H1246   1.083       .  S
C1240      C1241   1.405       .  A
C1240      H1247   1.083       .  S
C1241      C1242   1.407       .  A
C1242      H1248   1.084       .  S
C1249      C1250   1.405       .  A
C1249      C1254   1.410       .  A
C1250      C1251   1.401       .  A
C1250      H1259   1.083       .  S
C1251      C1252   1.404       .  A
C1251      H1260   1.083       .  S
C1252      C1258   1.409       .  A
C1252      C1253   1.414       .  A
C1253      C1255   1.404       .  A
C1253      C1254   1.407       .  A
C1254      H1261   1.084       .  S
C1255      C1256   1.400       .  A
C1255      H1262   1.083       .  S
C1256      C1257   1.403       .  A
C1256      H1263   1.084       .  S
C1257      C1258   1.406       .  A
C1258      H1264   1.084       .  S
C1265      C1266   1.415       .  A
C1265      C1270   1.419   1_554  A
C1266      C1267   1.396   1_545  A
C1266      H1275   1.078       .  S
C1267      C1268   1.398       .  A
C1267      H1276   1.084       .  S
C1268      C1274   1.406       .  A
C1268      C1269   1.409   1_554  A
C1269      C1271   1.405       .  A
C1269      C1270   1.415   1_565  A
C1270      H1277   1.081       .  S
C1271      C1272   1.405       .  A
C1271      H1278   1.084       .  S
C1272      C1273   1.411       .  A
C1272      H1279   1.079       .  S
C1273      C1274   1.413   1_556  A
C1274      H1280   1.083       .  S
C1281      C1282   1.408       .  A
C1281      C1286   1.407       .  A
C1282      C1283   1.398       .  A
C1282      H1291   1.084       .  S
C1283      C1284   1.401       .  A
C1283      H1292   1.083       .  S
C1284      C1290   1.407       .  A
C1284      C1285   1.415       .  A
C1285      C1287   1.403       .  A
C1285      C1286   1.409       .  A
C1286      H1293   1.083       .  S
C1287      C1288   1.399       .  A
C1287      H1294   1.083       .  S
C1288      C1289   1.403       .  A
C1288      H1295   1.084       .  S
C1289      C1290   1.406       .  A
C1290      H1296   1.084       .  S
C1297      C1298   1.403       .  A
C1297      C1302   1.406       .  A
C1298      C1299   1.400       .  A
C1298      H1307   1.084       .  S
C1299      C1300   1.405       .  A
C1299      H1308   1.083       .  S
C1300      C1306   1.406       .  A
C1300      C1301   1.413       .  A
C1301      C1303   1.404       .  A
C1301      C1302   1.406       .  A
C1302      H1309   1.084       .  S
C1303      C1304   1.400       .  A
C1303      H1310   1.083       .  S
C1304      C1305   1.403       .  A
C1304      H1311   1.084       .  S
C1305      C1306   1.408       .  A
C1306      H1312   1.084       .  S
