geometry optimzed in LAMMPS
_audit_creation_date              2020-11-30 
_audit_creation_method            'lammps2cif' 
_symmetry_space_group_name_H-M    'P1' 
_symmetry_Int_Tables_number       1 
_symmetry_cell_setting            triclinic 
loop_ 
_symmetry_equiv_pos_as_xyz 
  x,y,z 
_cell_length_a                    35.57389926 
_cell_length_b                    35.583922976694446 
_cell_length_c                    58.41785737177792 
_cell_angle_alpha                 89.97634714918816 
_cell_angle_beta                  89.95990928141691 
_cell_angle_gamma                 119.81243159098588 
loop_ 
_atom_site_label 
_atom_site_type_symbol 
_atom_site_fract_x 
_atom_site_fract_y 
_atom_site_fract_z 
_atom_site_charge 
C1          C  0.25746528  0.25279626  0.14426321     0.03300
C2          C  0.29295460  0.24859327  0.15134317    -0.12900
C3          C  0.32529228  0.28024609  0.16530915     0.00800
C4          C  0.32217597  0.31643891  0.17196255    -0.11400
C5          C  0.28671214  0.32089314  0.16529766     0.03200
C6          C  0.25431228  0.28879248  0.15151001    -0.10800
H7          H  0.29522595  0.22055675  0.14614070     0.08800
H8          H  0.34660508  0.34033862  0.18319309     0.06400
H9          H  0.22701198  0.29216384  0.14608135     0.06200
C10         C  0.61356697  0.27675818  0.23536883     0.45600
H11         H  0.61510420  0.27488807  0.21643803    -0.03400
C12         C  0.60880234  0.28019658  0.27985977     0.45600
H13         H  0.60713596  0.28195542  0.29879471    -0.03400
C14         C  0.61430211  0.23915253  0.24786387    -0.17100
C15         C  0.65105497  0.31800318  0.24589284    -0.16900
C16         C  0.57206376  0.27521959  0.24387036    -0.17300
C17         C  0.61261726  0.24141114  0.27135776    -0.17200
C18         C  0.64812531  0.31974863  0.26937662    -0.16800
C19         C  0.56953431  0.27756075  0.26731072    -0.17100
C20         C  0.28332634  0.61278530  0.22260200     0.45600
H21         H  0.28412268  0.60907254  0.20374415    -0.03400
C22         C  0.28186941  0.62147644  0.26692658     0.45600
H23         H  0.28115809  0.62480829  0.28580463    -0.03400
C24         C  0.24553391  0.61831947  0.23096681    -0.17100
C25         C  0.27949672  0.57421334  0.23621236    -0.16900
C26         C  0.32387053  0.65211226  0.23206122    -0.17300
C27         C  0.24416336  0.62205684  0.25441717    -0.17200
C28         C  0.27898144  0.57888600  0.25947465    -0.16800
C29         C  0.32306053  0.65716205  0.25539727    -0.17100
C30         C  0.94029394  0.62302283  0.13757503     0.03300
C31         C  0.90288042  0.58852587  0.14743603    -0.12900
C32         C  0.90571567  0.55684524  0.16076038     0.00800
C33         C  0.94673413  0.56056934  0.16380817    -0.11400
C34         C  0.98433485  0.59613078  0.15516777     0.03200
C35         C  0.98090685  0.62705722  0.14192660    -0.10800
H36         H  0.87189116  0.58662515  0.14468087     0.08800
H37         H  0.94995083  0.53636277  0.17347248     0.06400
H38         H  0.00991282  0.65432271  0.13495617     0.06200
C39         C  0.64688913  0.95444481  0.14547818     0.03300
C40         C  0.64942069  0.99150933  0.15552355    -0.12900
C41         C  0.61583452  0.98798704  0.16976622     0.00800
C42         C  0.57896024  0.94682187  0.17286198    -0.11400
C43         C  0.57686979  0.90956717  0.16356463     0.03200
C44         C  0.61109862  0.91352020  0.15002232    -0.10800
H45         H  0.67823123  0.02257716  0.15277463     0.08800
H46         H  0.55193362  0.94324328  0.18304749     0.06400
H47         H  0.60949713  0.88480908  0.14264193     0.06200
C48         C  0.95008925  0.64223744  0.35562286     0.03300
C49         C  0.98771254  0.64551273  0.34580970    -0.12900
C50         C  0.98575012  0.61101108  0.33296423     0.00800
C51         C  0.94510189  0.57336188  0.33009183    -0.11400
C52         C  0.90713815  0.57101390  0.33854130     0.03200
C53         C  0.90978796  0.60533540  0.35146493    -0.10800
H54         H  0.01832405  0.67492506  0.34839168     0.08800
H55         H  0.94238266  0.54571751  0.32090897     0.06400
H56         H  0.88051767  0.60325723  0.35836773     0.06200
C57         C  0.63018799  0.94060423  0.36303935     0.03300
C58         C  0.63377126  0.98124013  0.35928573    -0.12900
C59         C  0.60434300  0.98511566  0.34501672     0.00800
C60         C  0.57096328  0.94812893  0.33465675    -0.11400
C61         C  0.56771699  0.90734282  0.33750467     0.03200
C62         C  0.59758505  0.90383439  0.35186029    -0.10800
H63         H  0.65965000  0.00988030  0.36733281     0.08800
H64         H  0.54804978  0.95152653  0.32387592     0.06400
H65         H  0.59575909  0.87278723  0.35429133     0.06200
C66         C  0.25308556  0.26778974  0.36170401     0.03300
C67         C  0.28467673  0.26012761  0.35181203    -0.12900
C68         C  0.31771102  0.29185403  0.33802602     0.00800
C69         C  0.31805505  0.33110603  0.33424990    -0.11400
C70         C  0.28565441  0.33839803  0.34327240     0.03200
C71         C  0.25352514  0.30672096  0.35730811    -0.10800
H72         H  0.28309626  0.22932630  0.35476993     0.08800
H73         H  0.34327029  0.35608311  0.32384681     0.06400
H74         H  0.22851271  0.31202500  0.36458800     0.06200
Zn75       Zn  0.94747042  0.94846351  0.46661107     1.49700
Zn76       Zn  0.95077833  0.89698423  0.51063422     1.49400
Zn77       Zn  0.99926310  0.00184289  0.51123233     1.49100
Zn78       Zn  0.89659772  0.94782177  0.51148496     1.49500
O79         O  0.94869190  0.94862337  0.50008059    -1.84000
O80         O  0.95348995  0.89937374  0.45365979    -0.74600
O81         O  0.00618995  0.91526920  0.52887912    -0.74500
O82         O  0.03352866  0.04074761  0.48472085    -0.74000
O83         O  0.95048270  0.86001020  0.48382725    -0.74700
O84         O  0.99625240  0.00391770  0.45420237    -0.74200
O85         O  0.03821721  0.98721207  0.52970948    -0.74800
O86         O  0.91027341  0.00136379  0.52949947    -0.74200
O87         O  0.89885731  0.86002309  0.53116039    -0.75000
O88         O  0.98197470  0.03698875  0.53154578    -0.74400
O89         O  0.86373904  0.89714925  0.53244622    -0.74800
O90         O  0.85705298  0.94340360  0.48574843    -0.74700
O91         O  0.89159708  0.94228108  0.45434804    -0.74500
C92         C  0.95301190  0.86623872  0.46223131     0.77300
C93         C  0.03721593  0.95203676  0.53519829     0.77700
C94         C  0.02791872  0.03731867  0.46309745     0.76700
C95         C  0.94545970  0.03333543  0.53661507     0.77100
C96         C  0.86773755  0.86492939  0.53848925     0.78200
C97         C  0.85909508  0.94135523  0.46406043     0.77300
Zn98       Zn  0.94696581  0.94260555  0.03522943     1.49700
Zn99       Zn  0.89901643  0.95019193  0.99040914     1.49400
Zn100      Zn  0.00306517  0.99660341  0.99168712     1.49100
Zn101      Zn  0.94579515  0.89266111  0.98987481     1.49500
O102        O  0.94873544  0.94561421  0.00172821    -1.84000
O103        O  0.89453459  0.94318729  0.04735688    -0.74600
O104        O  0.91888239  0.00503656  0.97214917    -0.74500
O105        O  0.03930806  0.03094776  0.01895025    -0.74000
O106        O  0.86257506  0.95177142  0.01672313    -0.74700
O107        O  0.99895585  0.99446352  0.04888126    -0.74200
O108        O  0.99071670  0.03634939  0.97187171    -0.74800
O109        O  0.99673192  0.90746920  0.96904293    -0.74200
O110        O  0.86080195  0.89931271  0.96968242    -0.75000
O111        O  0.03873554  0.97879745  0.97236169    -0.74400
O112        O  0.89132651  0.85793585  0.97130883    -0.74800
O113        O  0.94603298  0.85408975  0.01549731    -0.74700
O114        O  0.94508992  0.88821544  0.04708430    -0.74500
C115        C  0.86467598  0.94803364  0.03832223     0.77300
C116        C  0.95585395  0.03556418  0.96587860     0.77700
C117        C  0.03290615  0.02640081  0.04051003     0.76700
C118        C  0.03130245  0.94256223  0.96415968     0.77100
C119        C  0.86150113  0.86495280  0.96420725     0.78200
C120        C  0.94512376  0.85626173  0.03726791     0.77300
C121        C  0.94176205  0.26374310  0.63610483     0.03300
C122        C  0.98081795  0.30293046  0.63921756    -0.12900
C123        C  0.98329160  0.33460195  0.65435428     0.00800
C124        C  0.94563549  0.32802896  0.66546955    -0.11400
C125        C  0.90615440  0.28917768  0.66294078     0.03200
C126        C  0.90448950  0.25712023  0.64814010    -0.10800
H127        H  0.00971009  0.30886814  0.63003579     0.08800
H128        H  0.94757364  0.35287974  0.67687656     0.06400
H129        H  0.87473505  0.22642379  0.64670909     0.06200
C130        C  0.95090973  0.25716164  0.85967862     0.03300
C131        C  0.98946961  0.29273294  0.85142462    -0.12900
C132        C  0.98842095  0.32479663  0.83781025     0.00800
C133        C  0.94831478  0.32150648  0.83281783    -0.11400
C134        C  0.90952254  0.28620530  0.84062075     0.03200
C135        C  0.91096211  0.25389438  0.85376320    -0.10800
H136        H  0.02051460  0.29614180  0.85597818     0.08800
H137        H  0.94706624  0.34563236  0.82201561     0.06400
H138        H  0.88085189  0.22633234  0.85941112     0.06200
C139        C  0.61694636  0.28303293  0.73414396     0.45600
H140        H  0.61923240  0.28406701  0.71516233    -0.03400
C141        C  0.61130931  0.28108211  0.77877988     0.45600
H142        H  0.60857716  0.27976022  0.79774936    -0.03400
C143        C  0.61707050  0.32275232  0.74450776    -0.17100
C144        C  0.57549843  0.24406736  0.74346905    -0.16900
C145        C  0.65453735  0.28130802  0.74621235    -0.17300
C146        C  0.61335797  0.32146169  0.76802520    -0.17200
C147        C  0.57287993  0.24297866  0.76690305    -0.16800
C148        C  0.65126373  0.28007240  0.76974288    -0.17100
C149        C  0.27749115  0.60949352  0.76782030     0.45600
H150        H  0.27639261  0.60790898  0.78682383    -0.03400
C151        C  0.27920938  0.61293809  0.72319147     0.45600
H152        H  0.27973834  0.61441924  0.70417894    -0.03400
C153        C  0.31964737  0.61497148  0.75740379    -0.17100
C154        C  0.24132730  0.56877075  0.75638206    -0.16900
C155        C  0.27277386  0.64684677  0.75797614    -0.17300
C156        C  0.32055316  0.61706971  0.73378833    -0.17200
C157        C  0.24233543  0.57064617  0.73294802    -0.16800
C158        C  0.27372815  0.64875625  0.73452698    -0.17100
C159        C  0.26595984  0.95396571  0.63871537     0.03300
C160        C  0.26067025  0.91384243  0.64605443    -0.12900
C161        C  0.29088092  0.91191784  0.66080793     0.00800
C162        C  0.32632411  0.95062637  0.66862296    -0.11400
C163        C  0.33199532  0.99105256  0.66197415     0.03200
C164        C  0.30187918  0.99240396  0.64686619    -0.10800
H165        H  0.23289478  0.88392740  0.64043639     0.08800
H166        H  0.34871525  0.94918878  0.68067599     0.06400
H167        H  0.30697372  0.02355717  0.64118077     0.06200
C168        C  0.64396449  0.64087856  0.64429105     0.03300
C169        C  0.60671514  0.64312769  0.65017260    -0.12900
C170        C  0.57375973  0.61066607  0.66346420     0.00800
C171        C  0.57771782  0.57531713  0.67081080    -0.11400
C172        C  0.61484606  0.57265649  0.66559449     0.03200
C173        C  0.64795063  0.60565570  0.65241335    -0.10800
H174        H  0.60264971  0.66961622  0.64404134     0.08800
H175        H  0.55247425  0.55062619  0.68140019     0.06400
H176        H  0.67677323  0.60382344  0.64855583     0.06200
C177        C  0.62840366  0.63471303  0.86491958     0.03300
C178        C  0.63022196  0.59724413  0.85859248    -0.12900
C179        C  0.59569253  0.56336867  0.84665906     0.00800
C180        C  0.55866369  0.56645913  0.84232361    -0.11400
C181        C  0.55834164  0.60522494  0.84559723     0.03200
C182        C  0.59264521  0.63883653  0.85771159    -0.10800
H183        H  0.65913122  0.59536423  0.86206254     0.08800
H184        H  0.53078416  0.53929570  0.83450755     0.06400
H185        H  0.59179705  0.66829497  0.86111539     0.06200
C186        C  0.25251852  0.94091243  0.85660582     0.03300
C187        C  0.28846771  0.98009533  0.84931203    -0.12900
C188        C  0.32093579  0.97998104  0.83569180     0.00800
C189        C  0.31674247  0.94033918  0.82890796    -0.11400
C190        C  0.28136430  0.90086488  0.83596422     0.03200
C191        C  0.24930957  0.90139633  0.84978932    -0.10800
H192        H  0.29140422  0.01074785  0.85429823     0.08800
H193        H  0.34096467  0.94030460  0.81766511     0.06400
H194        H  0.22258022  0.87103752  0.85580734     0.06200
C195        C  0.35378464  0.61422431  0.77177952    -0.01200
C196        C  0.36793448  0.63831067  0.79205530    -0.09200
C197        C  0.40118080  0.63867986  0.80510178    -0.18000
C198        C  0.42173941  0.61534458  0.79793148     0.04400
C199        C  0.40693388  0.59103159  0.77731370     0.18600
C200        C  0.37224218  0.58921696  0.76517760    -0.19400
C201        C  0.42724564  0.56913744  0.76857554    -0.20700
C202        C  0.46232305  0.57094950  0.77981501    -0.19200
C203        C  0.47677867  0.59323526  0.80053565     0.20000
C204        C  0.45649920  0.61524681  0.81021628     0.02100
C205        C  0.47168809  0.63550052  0.83178864    -0.14000
C206        C  0.50501874  0.63301272  0.84336308    -0.11700
C207        C  0.52451751  0.61092273  0.83360932     0.01600
C208        C  0.51103105  0.59264370  0.81179472    -0.23900
H209        H  0.35370670  0.65746520  0.79767742     0.09600
H210        H  0.41087561  0.65831591  0.82035682     0.13200
H211        H  0.36006271  0.56868289  0.75019812     0.11900
H212        H  0.41637445  0.55105702  0.75271043     0.13100
H213        H  0.47770885  0.55400120  0.77247445     0.12100
H214        H  0.45758971  0.65236565  0.84037529     0.09200
H215        H  0.51483293  0.64754359  0.86014902     0.12500
H216        H  0.52689897  0.57696517  0.80353384     0.14300
C217        C  0.53562075  0.61413203  0.67041113    -0.01200
C218        C  0.49379132  0.58058185  0.66555306    -0.09200
C219        C  0.45753401  0.58220481  0.67340904    -0.18000
C220        C  0.46212039  0.61724595  0.68693527     0.04400
C221        C  0.50482462  0.65120806  0.69181781     0.18600
C222        C  0.54096640  0.64976559  0.68316309    -0.19400
C223        C  0.51124699  0.68567374  0.70593786    -0.20700
C224        C  0.47620890  0.68648319  0.71598595    -0.19200
C225        C  0.43381954  0.65341257  0.71169739     0.20000
C226        C  0.42603073  0.61899336  0.69653868     0.02100
C227        C  0.38244795  0.58744052  0.69202405    -0.14000
C228        C  0.34833078  0.58850220  0.70326417    -0.11700
C229        C  0.35651261  0.62069043  0.71937090     0.01600
C230        C  0.39915238  0.65390381  0.72297065    -0.23900
H231        H  0.48918459  0.55276572  0.65574800     0.09600
H232        H  0.42643310  0.55489994  0.66920833     0.13200
H233        H  0.57343454  0.67549894  0.68718894     0.11900
H234        H  0.54369186  0.71162032  0.70974490     0.13100
H235        H  0.48233578  0.71297033  0.72736878     0.12100
H236        H  0.37367776  0.56125670  0.68013276     0.09200
H237        H  0.31542900  0.56285287  0.70014533     0.12500
H238        H  0.40533947  0.67926616  0.73519419     0.14300
C239        C  0.27878248  0.85957728  0.82874396    -0.01200
C240        C  0.31655463  0.85655223  0.82797947    -0.09200
C241        C  0.31620213  0.82036479  0.81870780    -0.18000
C242        C  0.27773344  0.78557260  0.80977933     0.04400
C243        C  0.23877105  0.78723377  0.81204073     0.18600
C244        C  0.23960859  0.82408394  0.82142947    -0.19400
C245        C  0.19950618  0.75266585  0.80429996    -0.20700
C246        C  0.19835439  0.71716402  0.79359264    -0.19200
C247        C  0.23653892  0.71573410  0.79001019     0.20000
C248        C  0.27678574  0.74977017  0.79823411     0.02100
C249        C  0.31462941  0.74734253  0.79372293    -0.14000
C250        C  0.31268402  0.71332709  0.78101470    -0.11700
C251        C  0.27321372  0.68060345  0.77268127     0.01600
C252        C  0.23504260  0.68116907  0.77761674    -0.23900
H253        H  0.34693251  0.88275524  0.83432555     0.09600
H254        H  0.34672347  0.82089630  0.81863227     0.13200
H255        H  0.21008326  0.82586794  0.82210174     0.11900
H256        H  0.16957444  0.75339951  0.80621726     0.13100
H257        H  0.16755312  0.69122335  0.78748844     0.12100
H258        H  0.34642222  0.77180687  0.79912867     0.09200
H259        H  0.34237033  0.71309392  0.77716806     0.12500
H260        H  0.20442300  0.65534113  0.77123119     0.14300
C261        C  0.27291743  0.68368576  0.72121559    -0.01200
C262        C  0.23559093  0.68730817  0.72063147    -0.09200
C263        C  0.23563530  0.72197679  0.70936032    -0.18000
C264        C  0.27345539  0.75436291  0.69838575     0.04400
C265        C  0.31093777  0.74965946  0.69862236     0.18600
C266        C  0.31012621  0.71421536  0.70972763    -0.19400
C267        C  0.34938621  0.78097429  0.68832992    -0.20700
C268        C  0.35198657  0.81773398  0.67844859    -0.19200
C269        C  0.31603097  0.82382830  0.67831538     0.20000
C270        C  0.27589049  0.79178029  0.68775688     0.02100
C271        C  0.24029015  0.79909682  0.68648475    -0.14000
C272        C  0.24492689  0.83738076  0.67713753    -0.11700
C273        C  0.28505972  0.86966539  0.66882285     0.01600
C274        C  0.32026372  0.86225520  0.66912536    -0.23900
H275        H  0.20631859  0.66331852  0.72909561     0.09600
H276        H  0.20586477  0.72294886  0.70993870     0.13200
H277        H  0.33896389  0.71113243  0.71016764     0.11900
H278        H  0.37796763  0.77748701  0.68837107     0.13100
H279        H  0.38254596  0.84184974  0.67107628     0.12100
H280        H  0.20854577  0.77608315  0.69277950     0.09200
H281        H  0.21724772  0.84233462  0.67707209     0.12500
H282        H  0.35125499  0.88677162  0.66233481     0.14300
C283        C  0.62119797  0.35908359  0.73024379    -0.01200
C284        C  0.65681314  0.40062651  0.73301068    -0.09200
C285        C  0.65892885  0.43601163  0.72142358    -0.18000
C286        C  0.62465497  0.43093760  0.70707515     0.04400
C287        C  0.58841938  0.38851422  0.70453111     0.18600
C288        C  0.58761967  0.35296968  0.71555139    -0.19400
C289        C  0.55255397  0.38201227  0.69163086    -0.20700
C290        C  0.55147746  0.41680251  0.68146955    -0.19200
C291        C  0.58672890  0.45885327  0.68342199     0.20000
C292        C  0.62431562  0.46648347  0.69576508     0.02100
C293        C  0.65969498  0.50939330  0.69632559    -0.14000
C294        C  0.65706200  0.54341401  0.68588322    -0.11700
C295        C  0.61914879  0.53595508  0.67470226     0.01600
C296        C  0.58435515  0.49343164  0.67327364    -0.23900
H297        H  0.68280075  0.40576960  0.74453432     0.09600
H298        H  0.68706660  0.46709314  0.72466299     0.13200
H299        H  0.55968099  0.32081832  0.71379858     0.11900
H300        H  0.52470177  0.34986861  0.68978869     0.13100
H301        H  0.52282215  0.41075648  0.67199623     0.12100
H302        H  0.68980670  0.51769462  0.70470631     0.09200
H303        H  0.68439145  0.57597771  0.68716891     0.12500
H304        H  0.55518474  0.48729744  0.66428291     0.14300
C305        C  0.60661685  0.35300152  0.78157195    -0.01200
C306        C  0.57705147  0.36527037  0.77384635    -0.09200
C307        C  0.57357648  0.39820344  0.78461565    -0.18000
C308        C  0.59891392  0.41928434  0.80403382     0.04400
C309        C  0.62465785  0.40305284  0.81363880     0.18600
C310        C  0.62879319  0.37042806  0.80217420    -0.19400
C311        C  0.64631641  0.41996742  0.83439359    -0.20700
C312        C  0.64336222  0.45315254  0.84552583    -0.19200
C313        C  0.62057643  0.47173650  0.83557338     0.20000
C314        C  0.59905255  0.45557540  0.81433159     0.02100
C315        C  0.58022116  0.47762088  0.80360082    -0.14000
C316        C  0.58074934  0.51288106  0.81400759    -0.11700
C317        C  0.59887945  0.52707119  0.83583573     0.01600
C318        C  0.61960605  0.50675960  0.84639380    -0.23900
H319        H  0.55663310  0.34952156  0.75919590     0.09600
H320        H  0.55018494  0.40592981  0.77762640     0.13200
H321        H  0.64997358  0.35944909  0.80896498     0.11900
H322        H  0.66543940  0.40731676  0.84210934     0.13100
H323        H  0.66009822  0.46523643  0.86166626     0.12100
H324        H  0.56623439  0.46938269  0.78670668     0.09200
H325        H  0.56693574  0.52939114  0.80464999     0.12500
H326        H  0.63476343  0.51799152  0.86296971     0.14300
C327        C  0.54147736  0.21101864  0.72858324    -0.01200
C328        C  0.50274310  0.21128190  0.72512352    -0.09200
C329        C  0.46838067  0.17758596  0.71329984    -0.18000
C330        C  0.47201356  0.14257207  0.70432454     0.04400
C331        C  0.51231811  0.14364860  0.70711295     0.18600
C332        C  0.54650501  0.17769233  0.71918507    -0.19400
C333        C  0.51799847  0.11030896  0.69822418    -0.20700
C334        C  0.48428016  0.07537184  0.68700240    -0.19200
C335        C  0.44388067  0.07268291  0.68449491     0.20000
C336        C  0.43713677  0.10634806  0.69294693     0.02100
C337        C  0.39556005  0.10177697  0.68996534    -0.14000
C338        C  0.36205882  0.06504243  0.67944925    -0.11700
C339        C  0.36866175  0.03158008  0.67153723     0.01600
C340        C  0.40994931  0.03603946  0.67388736    -0.23900
H341        H  0.49877835  0.23734879  0.73202688     0.09600
H342        H  0.43933570  0.17971721  0.71164151     0.13200
H343        H  0.57664934  0.17766036  0.72187684     0.11900
H344        H  0.54865613  0.11104575  0.70015694     0.13100
H345        H  0.48967838  0.04990588  0.68051090     0.12100
H346        H  0.38765534  0.12567885  0.69591333     0.09200
H347        H  0.33040878  0.06226197  0.67809748     0.12500
H348        H  0.41562617  0.01062805  0.66757555     0.14300
C349        C  0.53788089  0.20705756  0.77984555    -0.01200
C350        C  0.54555078  0.17619699  0.79021702    -0.09200
C351        C  0.51191838  0.14003811  0.80096098    -0.18000
C352        C  0.46935320  0.13377483  0.80150033     0.04400
C353        C  0.46235961  0.16624466  0.79148225     0.18600
C354        C  0.49666785  0.20265547  0.78099503    -0.19400
C355        C  0.42102168  0.16181477  0.79158979    -0.20700
C356        C  0.38608487  0.12534829  0.80108797    -0.19200
C357        C  0.39161069  0.09239811  0.81070260     0.20000
C358        C  0.43338865  0.09624557  0.81123077     0.02100
C359        C  0.43711392  0.06194340  0.82107760    -0.14000
C360        C  0.40077131  0.02500295  0.82939971    -0.11700
C361        C  0.35955601  0.02092902  0.82836678     0.01600
C362        C  0.35533966  0.05513333  0.81936501    -0.23900
H363        H  0.57756867  0.17963698  0.78953948     0.09600
H364        H  0.52018876  0.11738582  0.80834494     0.13200
H365        H  0.49120631  0.22727107  0.77333675     0.11900
H366        H  0.41555892  0.18649198  0.78401199     0.13100
H367        H  0.35437625  0.12265954  0.80065782     0.12100
H368        H  0.46748935  0.06233607  0.82236316     0.09200
H369        H  0.40490504  0.99923057  0.83661276     0.12500
H370        H  0.32350509  0.05208396  0.81835976     0.14300
C371        C  0.86762837  0.28293067  0.83431740    -0.01200
C372        C  0.86125302  0.31836132  0.83751261    -0.09200
C373        C  0.82342091  0.31707942  0.82990107    -0.18000
C374        C  0.79090989  0.28035015  0.81832484     0.04400
C375        C  0.79743749  0.24430376  0.81532787     0.18600
C376        C  0.83512554  0.24560209  0.82369326    -0.19400
C377        C  0.76712852  0.20781913  0.80321651    -0.20700
C378        C  0.73137877  0.20704248  0.79310943    -0.19200
C379        C  0.72445367  0.24227804  0.79535839     0.20000
C380        C  0.75319256  0.27880995  0.80870977     0.02100
C381        C  0.74343856  0.31262062  0.81129309    -0.14000
C382        C  0.70853541  0.31153423  0.79972655    -0.11700
C383        C  0.68261729  0.27705423  0.78522047     0.01600
C384        C  0.68973479  0.24184621  0.78368347    -0.23900
H385        H  0.88600162  0.34747390  0.84575109     0.09600
H386        H  0.82127238  0.34588584  0.83266226     0.13200
H387        H  0.84019820  0.21830772  0.82092475     0.11900
H388        H  0.77183663  0.18021249  0.80091208     0.13100
H389        H  0.70930628  0.17891056  0.78318046     0.12100
H390        H  0.76259967  0.34066855  0.82178017     0.09200
H391        H  0.70331634  0.33892310  0.80108513     0.12500
H392        H  0.66916437  0.21487789  0.77262505     0.14300
C393        C  0.20676995  0.53281698  0.76963545    -0.01200
C394        C  0.20375794  0.49216422  0.77004370    -0.09200
C395        C  0.17014293  0.45770808  0.78188972    -0.18000
C396        C  0.13828781  0.46304882  0.79366187     0.04400
C397        C  0.14204755  0.50479473  0.79328348     0.18600
C398        C  0.17629293  0.53918956  0.78148186    -0.19400
C399        C  0.11134138  0.51188952  0.80445542    -0.20700
C400        C  0.07653642  0.47828507  0.81583054    -0.19200
C401        C  0.07160851  0.43675068  0.81638093     0.20000
C402        C  0.10260316  0.42852500  0.80552792     0.02100
C403        C  0.09614079  0.38599012  0.80684153    -0.14000
C404        C  0.05987975  0.35291261  0.81788099    -0.11700
C405        C  0.02883859  0.36095112  0.82797599     0.01600
C406        C  0.03536332  0.40318735  0.82744649    -0.23900
H407        H  0.22756573  0.48707479  0.76113395     0.09600
H408        H  0.16981900  0.42728622  0.78134414     0.13200
H409        H  0.17881627  0.57084400  0.78107669     0.11900
H410        H  0.11405005  0.54360313  0.80422133     0.13100
H411        H  0.05307765  0.48476884  0.82411855     0.12100
H412        H  0.11820699  0.37705860  0.79926175     0.09200
H413        H  0.05543509  0.32051076  0.81790268     0.12500
H414        H  0.01183915  0.40987082  0.83551302     0.14300
C415        C  0.86776773  0.28247476  0.67658611    -0.01200
C416        C  0.87376482  0.30030460  0.69863299    -0.09200
C417        C  0.83969664  0.29996262  0.71052225    -0.18000
C418        C  0.79780506  0.28076995  0.70098190     0.04400
C419        C  0.79047310  0.25837289  0.67988395     0.18600
C420        C  0.82549093  0.26008621  0.66766203    -0.19400
C421        C  0.74834458  0.23500641  0.67108050    -0.20700
C422        C  0.71353178  0.23380629  0.68275622    -0.19200
C423        C  0.72033783  0.25780350  0.70286935     0.20000
C424        C  0.76289204  0.28265393  0.71183551     0.02100
C425        C  0.76912534  0.30989626  0.73071180    -0.14000
C426        C  0.73420740  0.31065264  0.74098473    -0.11700
C427        C  0.69173858  0.28312255  0.73351739     0.01600
C428        C  0.68507476  0.25758174  0.71400993    -0.23900
H429        H  0.90524530  0.31519907  0.70677708     0.09600
H430        H  0.84692670  0.31435926  0.72733686     0.13200
H431        H  0.81991883  0.24514798  0.65092252     0.11900
H432        H  0.74222291  0.21723570  0.65517481     0.13100
H433        H  0.68125649  0.21493796  0.67568341     0.12100
H434        H  0.80079977  0.33206280  0.73741719     0.09200
H435        H  0.74057797  0.33296928  0.75496088     0.12500
H436        H  0.65246060  0.23726062  0.70763350     0.14300
C437        C  0.02577962  0.37207359  0.66087753    -0.01200
C438        C  0.06079554  0.36570326  0.66564650    -0.09200
C439        C  0.09865305  0.39851799  0.67547131    -0.18000
C440        C  0.10260041  0.43896355  0.68111270     0.04400
C441        C  0.06774535  0.44596585  0.67527503     0.18600
C442        C  0.03009909  0.41284305  0.66506128    -0.19400
C443        C  0.06996527  0.48542857  0.68040655    -0.20700
C444        C  0.10554873  0.51774643  0.69188932    -0.19200
C445        C  0.13979091  0.51140812  0.69846084     0.20000
C446        C  0.13921690  0.47218405  0.69290996     0.02100
C447        C  0.17485964  0.46761844  0.69993307    -0.14000
C448        C  0.20883073  0.50010423  0.71248492    -0.11700
C449        C  0.20823671  0.53778536  0.71834070     0.01600
C450        C  0.17427073  0.54377754  0.71100725    -0.23900
H451        H  0.05819758  0.33441516  0.66280996     0.09600
H452        H  0.12363974  0.39067360  0.67905114     0.13200
H453        H  0.00343069  0.41831303  0.66109400     0.11900
H454        H  0.04358595  0.49101428  0.67591975     0.13100
H455        H  0.10596974  0.54766310  0.69598673     0.12100
H456        H  0.17725691  0.43923600  0.69627428     0.09200
H457        H  0.23541603  0.49557227  0.71793768     0.12500
H458        H  0.17427381  0.57332142  0.71560388     0.14300
C459        C  0.82716139  0.83239281  0.94921101    -0.01200
C460        C  0.80661064  0.84484557  0.93289656    -0.09200
C461        C  0.77516284  0.81426563  0.91824511    -0.18000
C462        C  0.76259650  0.76981604  0.91976590     0.04400
C463        C  0.78275642  0.75729960  0.93681491     0.18600
C464        C  0.81510236  0.78853202  0.95099434    -0.19400
C465        C  0.77028241  0.71360031  0.93978384    -0.20700
C466        C  0.73789941  0.68186205  0.92629625    -0.19200
C467        C  0.71781035  0.69305076  0.90913238     0.20000
C468        C  0.73033282  0.73723421  0.90532039     0.02100
C469        C  0.71006949  0.74673530  0.88718081    -0.14000
C470        C  0.67785813  0.71372286  0.87392878    -0.11700
C471        C  0.66440097  0.67003138  0.87828963     0.01600
C472        C  0.68503455  0.66015120  0.89583827    -0.23900
H473        H  0.81541125  0.87856090  0.93119545     0.09600
H474        H  0.76087767  0.82633431  0.90612181     0.13200
H475        H  0.83045852  0.77853627  0.96377815     0.11900
H476        H  0.78534944  0.70382688  0.95282617     0.13100
H477        H  0.72864181  0.64826784  0.92924791     0.12100
H478        H  0.71868197  0.77942939  0.88266394     0.09200
H479        H  0.66365532  0.72262881  0.86006315     0.12500
H480        H  0.67497872  0.62657632  0.89951009     0.14300
C481        C  0.06313388  0.94124551  0.94831650    -0.01200
C482        C  0.04987314  0.90735029  0.93255337    -0.09200
C483        C  0.07920630  0.90639579  0.91699995    -0.18000
C484        C  0.12326635  0.93922872  0.91692540     0.04400
C485        C  0.13686858  0.97282654  0.93346484     0.18600
C486        C  0.10674554  0.97395317  0.94864384    -0.19400
C487        C  0.18052689  0.00489071  0.93489778    -0.20700
C488        C  0.21111567  0.00415505  0.92035440    -0.19200
C489        C  0.19865111  0.97204211  0.90358549     0.20000
C490        C  0.15442757  0.93957257  0.90131967     0.02100
C491        C  0.14335553  0.90909280  0.88343147    -0.14000
C492        C  0.17501453  0.91005617  0.86890349    -0.11700
C493        C  0.21882780  0.94115148  0.87169132     0.01600
C494        C  0.23025716  0.97222815  0.88906191    -0.23900
H495        H  0.01637942  0.88165038  0.93199027     0.09600
H496        H  0.06649107  0.87918916  0.90547714     0.13200
H497        H  0.11743204  0.00001451  0.96099984     0.11900
H498        H  0.19118842  0.03043991  0.94754685     0.13100
H499        H  0.24475346  0.02913805  0.92211215     0.12100
H500        H  0.11042175  0.88442481  0.88000780     0.09200
H501        H  0.16499153  0.88641928  0.85525974     0.12500
H502        H  0.26400247  0.99634239  0.89157551     0.14300
C503        C  0.95246175  0.22405970  0.87478676    -0.01200
C504        C  0.98382331  0.21159784  0.87145369    -0.09200
C505        C  0.98641269  0.18186406  0.88610720    -0.18000
C506        C  0.95727014  0.16306724  0.90462649     0.04400
C507        C  0.92462070  0.17462985  0.90749006     0.18600
C508        C  0.92288996  0.20514065  0.89289149    -0.19400
C509        C  0.89373124  0.15561360  0.92490413    -0.20700
C510        C  0.89412569  0.12480934  0.93938430    -0.19200
C511        C  0.92615391  0.11311254  0.93724813     0.20000
C512        C  0.95886550  0.13280541  0.92020707     0.02100
C513        C  0.99185585  0.12156966  0.91969862    -0.14000
C514        C  0.99148978  0.09108154  0.93497457    -0.11700
C515        C  0.95797962  0.07025994  0.95095721     0.01600
C516        C  0.92558576  0.08171523  0.95208430    -0.23900
H517        H  0.00638638  0.22460784  0.85729259     0.09600
H518        H  0.01114435  0.17371437  0.88227903     0.13200
H519        H  0.89868440  0.21460559  0.89591720     0.11900
H520        H  0.86868707  0.16419859  0.92715343     0.13100
H521        H  0.86932749  0.11022190  0.95246426     0.12100
H522        H  0.01854672  0.13602487  0.90781101     0.09200
H523        H  0.01699245  0.08291959  0.93386846     0.12500
H524        H  0.89992822  0.06628600  0.96468210     0.14300
C525        C  0.83541919  0.83289384  0.55449807    -0.01200
C526        C  0.81254726  0.84522772  0.56936651    -0.09200
C527        C  0.78182751  0.81551912  0.58455360    -0.18000
C528        C  0.77240657  0.77195330  0.58515236     0.04400
C529        C  0.79494136  0.75933924  0.56961612     0.18600
C530        C  0.82655742  0.78988283  0.55478587    -0.19400
C531        C  0.78548730  0.71620720  0.56881099    -0.20700
C532        C  0.75402843  0.68519915  0.58306953    -0.19200
C533        C  0.73188050  0.69669676  0.59887032     0.20000
C534        C  0.74112568  0.74034823  0.60037025     0.02100
C535        C  0.71889019  0.75044962  0.61716598    -0.14000
C536        C  0.68827123  0.71844604  0.63150991    -0.11700
C537        C  0.67821487  0.67512085  0.62956799     0.01600
C538        C  0.70046521  0.66466685  0.61318450    -0.23900
H539        H  0.81872059  0.87827023  0.56942251     0.09600
H540        H  0.76560996  0.82755609  0.59535880     0.13200
H541        H  0.84364531  0.77992440  0.54308349     0.11900
H542        H  0.80229261  0.70627829  0.55691197     0.13100
H543        H  0.74722951  0.65200946  0.58185814     0.12100
H544        H  0.72481338  0.78288218  0.61988596     0.09200
H545        H  0.67264651  0.72791939  0.64436277     0.12500
H546        H  0.69287858  0.63133622  0.61125301     0.14300
C547        C  0.94370729  0.06682202  0.55098123    -0.01200
C548        C  0.90559203  0.06921488  0.55225856    -0.09200
C549        C  0.90361895  0.10077524  0.56560054    -0.18000
C550        C  0.93982918  0.13098172  0.57841299     0.04400
C551        C  0.97821312  0.12796834  0.57735498     0.18600
C552        C  0.97993689  0.09646167  0.56358324    -0.19400
C553        C  0.01463143  0.15623221  0.59017501    -0.20700
C554        C  0.01373530  0.18730661  0.60419479    -0.19200
C555        C  0.97663754  0.19140153  0.60546834     0.20000
C556        C  0.93928733  0.16373080  0.59240433     0.02100
C557        C  0.90319951  0.17023058  0.59390706    -0.14000
C558        C  0.90412319  0.20252819  0.60793524    -0.11700
C559        C  0.94076535  0.22927845  0.62111088     0.01600
C560        C  0.97681547  0.22315569  0.61979255    -0.23900
H561        H  0.87707816  0.04672014  0.54272941     0.09600
H562        H  0.87314439  0.10038480  0.56568799     0.13200
H563        H  0.00947803  0.09468410  0.56292768     0.11900
H564        H  0.04394841  0.15406841  0.58950051     0.13100
H565        H  0.04239656  0.20846841  0.61403477     0.12100
H566        H  0.87394434  0.15126061  0.58423824     0.09200
H567        H  0.87609947  0.20689659  0.60819698     0.12500
H568        H  0.00516436  0.24283086  0.63017136     0.14300
C569        C  0.07264310  0.95427353  0.54958651    -0.01200
C570        C  0.09564128  0.98951228  0.56431136    -0.09200
C571        C  0.12804940  0.99158673  0.57863948    -0.18000
C572        C  0.13909829  0.95850152  0.57852248     0.04400
C573        C  0.11702686  0.92373916  0.56281301     0.18600
C574        C  0.08371776  0.92155910  0.54883909    -0.19400
C575        C  0.12829884  0.89132738  0.56118172    -0.20700
C576        C  0.16059501  0.89231823  0.57504071    -0.19200
C577        C  0.18176779  0.92516332  0.59129985     0.20000
C578        C  0.17117767  0.95861900  0.59338618     0.02100
C579        C  0.19249642  0.99015034  0.61059939    -0.14000
C580        C  0.22287536  0.98844658  0.62509492    -0.11700
C581        C  0.23374537  0.95571763  0.62288307     0.01600
C582        C  0.21309769  0.92435854  0.60570178    -0.23900
H583        H  0.08796889  0.01538253  0.56510087     0.09600
H584        H  0.14403836  0.01966712  0.58949303     0.13200
H585        H  0.06667430  0.89456146  0.53718871     0.11900
H586        H  0.11202244  0.86499445  0.54908196     0.13100
H587        H  0.16850892  0.86671253  0.57331404     0.12100
H588        H  0.18566633  0.01599965  0.61368579     0.09200
H589        H  0.23725103  0.01257229  0.63845203     0.12500
H590        H  0.22139095  0.89912830  0.60344315     0.14300
C591        C  0.21854574  0.23446077  0.37605921    -0.01200
C592        C  0.18496526  0.19744657  0.36594952    -0.09200
C593        C  0.15191836  0.16568974  0.37933369    -0.18000
C594        C  0.15192185  0.16982646  0.40344594     0.04400
C595        C  0.18644645  0.20759752  0.41357016     0.18600
C596        C  0.21899192  0.23971622  0.39980225    -0.19400
C597        C  0.18863965  0.21273479  0.43737315    -0.20700
C598        C  0.15777250  0.18069968  0.45144749    -0.19200
C599        C  0.12352834  0.14303145  0.44205554     0.20000
C600        C  0.11957972  0.13746134  0.41789578     0.02100
C601        C  0.08362506  0.09951439  0.40928297    -0.14000
C602        C  0.05394537  0.06772738  0.42399349    -0.11700
C603        C  0.05881145  0.07247203  0.44780832     0.01600
C604        C  0.09342066  0.11063121  0.45670946    -0.23900
H605        H  0.18427517  0.19321154  0.34756007     0.09600
H606        H  0.12727271  0.13797994  0.37029182     0.13200
H607        H  0.24522451  0.26853931  0.40755758     0.11900
H608        H  0.21484782  0.24143789  0.44519160     0.13100
H609        H  0.16083056  0.18533615  0.46983222     0.12100
H610        H  0.07747121  0.09329225  0.39122854     0.09200
H611        H  0.02721961  0.03896149  0.41657281     0.12500
H612        H  0.09724009  0.11503210  0.47509885     0.14300
C613        C  0.66078352  0.93709664  0.37872421    -0.01200
C614        C  0.66447105  0.95154548  0.40128195    -0.09200
C615        C  0.69479941  0.95080636  0.41608530    -0.18000
C616        C  0.72315006  0.93617860  0.40857586     0.04400
C617        C  0.71921524  0.92154435  0.38556752     0.18600
C618        C  0.68772039  0.92148443  0.37100799    -0.19400
C619        C  0.74734615  0.90797531  0.37709897    -0.20700
C620        C  0.77986427  0.90930699  0.39087681    -0.19200
C621        C  0.78460504  0.92353537  0.41358209     0.20000
C622        C  0.75581523  0.93643776  0.42289758     0.02100
C623        C  0.76115340  0.94924657  0.44612243    -0.14000
C624        C  0.79417292  0.95010574  0.45934756    -0.11700
C625        C  0.82325677  0.93859539  0.44994724     0.01600
C626        C  0.81813281  0.92512554  0.42703734    -0.23900
H627        H  0.64378289  0.96369038  0.40745664     0.09600
H628        H  0.69579048  0.96279252  0.43312353     0.13200
H629        H  0.68511024  0.91071967  0.35342180     0.11900
H630        H  0.74460279  0.89687972  0.35958776     0.13100
H631        H  0.80152041  0.89916529  0.38369945     0.12100
H632        H  0.74029686  0.95869495  0.45466585     0.09200
H633        H  0.79731718  0.96054237  0.47700174     0.12500
H634        H  0.84018671  0.91566456  0.41966231     0.14300
C635        C  0.95280307  0.67670737  0.37082828    -0.01200
C636        C  0.97121725  0.71949510  0.36316821    -0.09200
C637        C  0.97296244  0.75178001  0.37752006    -0.18000
C638        C  0.95683386  0.74219866  0.40022627     0.04400
C639        C  0.93962480  0.69887494  0.40807256     0.18600
C640        C  0.93716041  0.66663387  0.39328281    -0.19400
C641        C  0.92506585  0.68795919  0.43065522    -0.20700
C642        C  0.92685273  0.71910029  0.44567536    -0.19200
C643        C  0.94227634  0.76174879  0.43834283     0.20000
C644        C  0.95717188  0.77387397  0.41544950     0.02100
C645        C  0.97091447  0.81694397  0.40870306    -0.14000
C646        C  0.96964776  0.84649918  0.42395552    -0.11700
C647        C  0.95529375  0.83458195  0.44655504     0.01600
C648        C  0.94211615  0.79217088  0.45369168    -0.23900
H649        H  0.98374876  0.72783114  0.34588619     0.09600
H650        H  0.98750498  0.78396362  0.37041686     0.13200
H651        H  0.92355354  0.63355492  0.39933423     0.11900
H652        H  0.91229059  0.65505919  0.43678195     0.13100
H653        H  0.91540564  0.70957390  0.46306266     0.12100
H654        H  0.98201206  0.82860410  0.39161217     0.09200
H655        H  0.98005449  0.87903291  0.41795696     0.12500
H656        H  0.93055866  0.78243364  0.47105732     0.14300
C657        C  0.68164870  0.95799531  0.13028812    -0.01200
C658        C  0.69168575  0.98220400  0.11008687    -0.09200
C659        C  0.72172560  0.98233800  0.09460082    -0.18000
C660        C  0.74301001  0.95845138  0.09910992     0.04400
C661        C  0.73419838  0.93586539  0.12030170     0.18600
C662        C  0.70331547  0.93532365  0.13543900    -0.19400
C663        C  0.75595889  0.91360801  0.12620921    -0.20700
C664        C  0.78618286  0.91293775  0.11142060    -0.19200
C665        C  0.79449777  0.93349420  0.09010179     0.20000
C666        C  0.77266294  0.95609239  0.08344708     0.02100
C667        C  0.78085374  0.97448906  0.06124862    -0.14000
C668        C  0.80994654  0.97104410  0.04648034    -0.11700
C669        C  0.83227355  0.94985385  0.05344836     0.01600
C670        C  0.82434611  0.93119148  0.07530178    -0.23900
H671        H  0.67527569  0.00010771  0.10597445     0.09600
H672        H  0.72765778  0.00145551  0.07932342     0.13200
H673        H  0.69588868  0.91707195  0.15127849     0.11900
H674        H  0.74963885  0.89668120  0.14241705     0.13100
H675        H  0.80267320  0.89558664  0.11654924     0.12100
H676        H  0.76486086  0.99120231  0.05469025     0.09200
H677        H  0.81555197  0.98571060  0.02965953     0.12500
H678        H  0.84109408  0.91424143  0.08072987     0.14300
C679        C  0.94385839  0.82091187  0.05144819    -0.01200
C680        C  0.95338157  0.79058470  0.04174674    -0.09200
C681        C  0.95230354  0.75727719  0.05495278    -0.18000
C682        C  0.94117692  0.75280332  0.07845962     0.04400
C683        C  0.93084706  0.78320019  0.08816200     0.18600
C684        C  0.93267401  0.81694279  0.07473979    -0.19400
C685        C  0.91857961  0.77966214  0.11119597    -0.20700
C686        C  0.91629705  0.74655203  0.12487301    -0.19200
C687        C  0.92685956  0.71644308  0.11597902     0.20000
C688        C  0.93981799  0.71932381  0.09267135     0.02100
C689        C  0.95146344  0.68893039  0.08473569    -0.14000
C690        C  0.95072079  0.65750168  0.09934194    -0.11700
C691        C  0.93767868  0.65466293  0.12216294     0.01600
C692        C  0.92531193  0.68389294  0.13037318    -0.23900
H693        H  0.96203111  0.79272899  0.02382415     0.09600
H694        H  0.96001083  0.73532819  0.04616731     0.13200
H695        H  0.92479436  0.83991077  0.08243946     0.11900
H696        H  0.91051707  0.80263687  0.11869558     0.13100
H697        H  0.90660307  0.74474153  0.14260919     0.12100
H698        H  0.96212954  0.68907654  0.06745516     0.09200
H699        H  0.96070219  0.63530590  0.09281338     0.12500
H700        H  0.91584480  0.68211505  0.14816381     0.14300
C701        C  0.02723285  0.60222594  0.16155111    -0.01200
C702        C  0.03702768  0.56915787  0.15800111    -0.09200
C703        C  0.07550024  0.57286642  0.16640373    -0.18000
C704        C  0.10497833  0.60958453  0.17919188     0.04400
C705        C  0.09500722  0.64332792  0.18237991     0.18600
C706        C  0.05683758  0.63966759  0.17324421    -0.19400
C707        C  0.12227786  0.67979165  0.19544071    -0.20700
C708        C  0.15850783  0.68284914  0.20617897    -0.19200
C709        C  0.16871377  0.64982934  0.20382942     0.20000
C710        C  0.14290086  0.61325859  0.18977717     0.02100
C711        C  0.15557999  0.58147847  0.18753497    -0.14000
C712        C  0.19052746  0.58451269  0.19997986    -0.11700
C713        C  0.21364653  0.61906395  0.21497302     0.01600
C714        C  0.20376100  0.65245519  0.21614650    -0.23900
H715        H  0.01439451  0.53996805  0.14899067     0.09600
H716        H  0.08050175  0.54583684  0.16326077     0.13200
H717        H  0.04895352  0.66503724  0.17628411     0.11900
H718        H  0.11485730  0.70559971  0.19790539     0.13100
H719        H  0.17827150  0.71091223  0.21673773     0.12100
H720        H  0.13863267  0.55348510  0.17669370     0.09200
H721        H  0.19818829  0.55867178  0.19874802     0.12500
H722        H  0.22234796  0.67964754  0.22748149     0.14300
C723        C  0.20754486  0.62141162  0.26702909    -0.01200
C724        C  0.21509307  0.64940696  0.28545233    -0.09200
C725        C  0.18043730  0.64881814  0.29717252    -0.18000
C726        C  0.13705125  0.62040368  0.29047930     0.04400
C727        C  0.12994187  0.59257050  0.27155002     0.18600
C728        C  0.16479819  0.59212163  0.26074637    -0.19400
C729        C  0.08810698  0.56571697  0.26319800    -0.20700
C730        C  0.05294983  0.56631086  0.27305869    -0.19200
C731        C  0.05856140  0.59229980  0.29215245     0.20000
C732        C  0.10045199  0.61885469  0.30156946     0.02100
C733        C  0.10360211  0.64204811  0.32179838    -0.14000
C734        C  0.06667246  0.63919434  0.33205310    -0.11700
C735        C  0.02545791  0.61413735  0.32221403     0.01600
C736        C  0.02218118  0.59137543  0.30197409    -0.23900
H737        H  0.24794825  0.67223899  0.29061465     0.09600
H738        H  0.18856241  0.67169638  0.31096001     0.13200
H739        H  0.15853657  0.56908540  0.24713066     0.11900
H740        H  0.08264075  0.54477666  0.24861777     0.13100
H741        H  0.02100006  0.54569656  0.26592944     0.12100
H742        H  0.13401272  0.66164898  0.33043765     0.09200
H743        H  0.07059989  0.65628125  0.34797296     0.12500
H744        H  0.99116035  0.57273433  0.29357147     0.14300
C745        C  0.36015609  0.68176369  0.21712582    -0.01200
C746        C  0.40148488  0.68727739  0.22047817    -0.09200
C747        C  0.43739042  0.72069072  0.20944233    -0.18000
C748        C  0.43295401  0.75036436  0.19512382     0.04400
C749        C  0.39048607  0.74355514  0.19132109     0.18600
C750        C  0.35447166  0.70861287  0.20175188    -0.19400
C751        C  0.38444030  0.77304868  0.17821842    -0.20700
C752        C  0.41981318  0.81036382  0.16968853    -0.19200
C753        C  0.46202732  0.81843951  0.17347073     0.20000
C754        C  0.46918737  0.78775539  0.18546007     0.02100
C755        C  0.51240916  0.79650414  0.18774025    -0.14000
C756        C  0.54706854  0.83524025  0.17967955    -0.11700
C757        C  0.53984264  0.86648523  0.16926699     0.01600
C758        C  0.49724575  0.85756832  0.16579960    -0.23900
H759        H  0.40614647  0.66662295  0.23240629     0.09600
H760        H  0.46836183  0.72372257  0.21338634     0.13200
H761        H  0.32234970  0.70442921  0.19944100     0.11900
H762        H  0.35219073  0.76805435  0.17527659     0.13100
H763        H  0.41412834  0.83335385  0.16030609     0.12100
H764        H  0.52051693  0.77423641  0.19582452     0.09200
H765        H  0.57983312  0.84153783  0.18236043     0.12500
H766        H  0.49162031  0.88152913  0.15740912     0.14300
C767        C  0.35733964  0.69439111  0.26828975    -0.01200
C768        C  0.37405085  0.73649355  0.25979329    -0.09200
C769        C  0.40906940  0.77129627  0.27030391    -0.18000
C770        C  0.42760948  0.76532586  0.29034706     0.04400
C771        C  0.40775075  0.72334884  0.30031177     0.18600
C772        C  0.37331955  0.68812782  0.28901767    -0.19400
C773        C  0.42237660  0.71706866  0.32145824    -0.20700
C774        C  0.45604709  0.75181328  0.33297698    -0.19200
C775        C  0.47727990  0.79318474  0.32308093     0.20000
C776        C  0.46425102  0.79997324  0.30121234     0.02100
C777        C  0.48889937  0.84098895  0.29087634    -0.14000
C778        C  0.52307338  0.87481773  0.30246849    -0.11700
C779        C  0.53376383  0.86932357  0.32484073     0.01600
C780        C  0.51135296  0.82795518  0.33486084    -0.23900
H781        H  0.36006105  0.74263908  0.24481683     0.09600
H782        H  0.42011633  0.80270688  0.26272032     0.13200
H783        H  0.35939709  0.65583330  0.29618480     0.11900
H784        H  0.40715419  0.68527450  0.32933124     0.13100
H785        H  0.46596836  0.74616184  0.34955856     0.12100
H786        H  0.48307193  0.84767998  0.27363962     0.09200
H787        H  0.54123354  0.90565922  0.29379067     0.12500
H788        H  0.51971230  0.82297053  0.35199359     0.14300
C789        C  0.27959399  0.54789360  0.27598892    -0.01200
C790        C  0.31905977  0.55515945  0.28482395    -0.09200
C791        C  0.32092513  0.52415886  0.29865524    -0.18000
C792        C  0.28305894  0.48445671  0.30373603     0.04400
C793        C  0.24283978  0.47803697  0.29515864     0.18600
C794        C  0.24141860  0.51005059  0.28173045    -0.19400
C795        C  0.20454616  0.43908302  0.29930033    -0.20700
C796        C  0.20548435  0.40548402  0.31094417    -0.19200
C797        C  0.24466700  0.41024577  0.31899582     0.20000
C798        C  0.28385826  0.45022275  0.31611977     0.02100
C799        C  0.32232470  0.45360723  0.32510766    -0.14000
C800        C  0.32233585  0.41791285  0.33498052    -0.11700
C801        C  0.28412985  0.37780838  0.33642838     0.01600
C802        C  0.24512630  0.37465400  0.32912407    -0.23900
H803        H  0.34877224  0.58446216  0.28043290     0.09600
H804        H  0.35264952  0.53168788  0.30445124     0.13200
H805        H  0.21080968  0.50490231  0.27499914     0.11900
H806        H  0.17380362  0.43408406  0.29289108     0.13100
H807        H  0.17544904  0.37523749  0.31326533     0.12100
H808        H  0.35311192  0.48311305  0.32438709     0.09200
H809        H  0.35269306  0.42144665  0.34105390     0.12500
H810        H  0.21537897  0.34374434  0.33013728     0.14300
C811        C  0.68003521  0.35546395  0.28381766    -0.01200
C812        C  0.70255617  0.34691969  0.30070363    -0.09200
C813        C  0.73715301  0.38086575  0.31220766    -0.18000
C814        C  0.74996989  0.42452515  0.30713875     0.04400
C815        C  0.72450898  0.43261641  0.29125304     0.18600
C816        C  0.69002850  0.39815687  0.27971001    -0.19400
C817        C  0.73443184  0.47508529  0.28645589    -0.20700
C818        C  0.77008649  0.50995744  0.29652156    -0.19200
C819        C  0.79727931  0.50321192  0.31118178     0.20000
C820        C  0.78763478  0.46039549  0.31676733     0.02100
C821        C  0.81726681  0.45544066  0.33084199    -0.14000
C822        C  0.85542713  0.49143863  0.33838935    -0.11700
C823        C  0.86469426  0.53335431  0.33270896     0.01600
C824        C  0.83508871  0.53911123  0.31954761    -0.23900
H825        H  0.69459499  0.31387673  0.30426112     0.09600
H826        H  0.75353984  0.37192236  0.32472420     0.13200
H827        H  0.67179684  0.40451837  0.26691846     0.11900
H828        H  0.71483064  0.48140288  0.27457319     0.13100
H829        H  0.77723878  0.54248952  0.29222426     0.12100
H830        H  0.81273219  0.42420084  0.33559556     0.09200
H831        H  0.87822880  0.48655315  0.34844349     0.12500
H832        H  0.84270399  0.57163580  0.31482920     0.14300
C833        C  0.68774249  0.35083680  0.23181963    -0.01200
C834        C  0.67988584  0.36563801  0.21115153    -0.09200
C835        C  0.71398868  0.39796262  0.19839723    -0.18000
C836        C  0.75736668  0.41669690  0.20603749     0.04400
C837        C  0.76510620  0.40073647  0.22679570     0.18600
C838        C  0.73067692  0.36748219  0.23902344    -0.19400
C839        C  0.80711040  0.41855975  0.23552481    -0.20700
C840        C  0.84168012  0.45268307  0.22436270    -0.19200
C841        C  0.83528585  0.46918224  0.20389337     0.20000
C842        C  0.79328381  0.45097343  0.19411692     0.02100
C843        C  0.78929280  0.46805532  0.17293866    -0.14000
C844        C  0.82545405  0.50200041  0.16212376    -0.11700
C845        C  0.86674574  0.52059239  0.17212798     0.01600
C846        C  0.87093888  0.50396281  0.19321640    -0.23900
H847        H  0.64713655  0.35275632  0.20497671     0.09600
H848        H  0.70530208  0.40822566  0.18289282     0.13200
H849        H  0.73738295  0.35489303  0.25443207     0.11900
H850        H  0.81317102  0.40657171  0.25136147     0.03900
H851        H  0.87373220  0.46621646  0.23178327     0.12100
H852        H  0.75875204  0.45546472  0.16415512     0.09200
H853        H  0.82098250  0.51326328  0.14568621     0.12500
H854        H  0.90210100  0.51839570  0.20169246     0.14300
C855        C  0.53372215  0.27991152  0.27937186    -0.01200
C856        C  0.51477931  0.25564998  0.29918783    -0.09200
C857        C  0.47894445  0.25532883  0.30936941    -0.18000
C858        C  0.46053623  0.27902749  0.29975137     0.04400
C859        C  0.48038714  0.30397094  0.27980012     0.18600
C860        C  0.51752296  0.30567333  0.27057095    -0.19400
C861        C  0.46275215  0.32662398  0.26886712    -0.20700
C862        C  0.42567592  0.32522043  0.27737736    -0.19200
C863        C  0.40621084  0.30236336  0.29747308     0.20000
C864        C  0.42340476  0.27916953  0.30911408     0.02100
C865        C  0.40311728  0.25797589  0.32977582    -0.14000
C866        C  0.36839291  0.26121987  0.33887635    -0.11700
C867        C  0.35198598  0.28474650  0.32746756     0.01600
C868        C  0.37026156  0.30372854  0.30627955    -0.23900
H869        H  0.52705498  0.23618153  0.30663338     0.09600
H870        H  0.46572503  0.23540463  0.32439854     0.13200
H871        H  0.53346359  0.32674789  0.25614228     0.11900
H872        H  0.47745884  0.34516226  0.25344861     0.13100
H873        H  0.41270134  0.34298846  0.26845082     0.12100
H874        H  0.41432664  0.23994543  0.33970424     0.09200
H875        H  0.35537183  0.24636043  0.35531164     0.12500
H876        H  0.35710178  0.32059436  0.29667556     0.14300
C877        C  0.60979665  0.02795421  0.33938907    -0.01200
C878        C  0.57724782  0.03761638  0.34475147    -0.09200
C879        C  0.57956000  0.07574237  0.33680261    -0.18000
C880        C  0.61413957  0.10483560  0.32259151     0.04400
C881        C  0.64756929  0.09509772  0.31767703     0.18600
C882        C  0.64545101  0.05730867  0.32640969    -0.19400
C883        C  0.68193574  0.12209310  0.30324912    -0.20700
C884        C  0.68301239  0.15770357  0.29279595    -0.19200
C885        C  0.65003707  0.16750378  0.29674039     0.20000
C886        C  0.61573113  0.14199194  0.31218413     0.02100
C887        C  0.58374079  0.15395467  0.31582597    -0.14000
C888        C  0.58412502  0.18771298  0.30341428    -0.11700
C889        C  0.61639013  0.21075085  0.28719064     0.01600
C890        C  0.65024617  0.20169315  0.28461800    -0.23900
H891        H  0.54942811  0.01503819  0.35474378     0.09600
H892        H  0.55299203  0.08068379  0.34139559     0.13200
H893        H  0.67037095  0.04941779  0.32204032     0.11900
H894        H  0.70751569  0.11487380  0.29947621     0.13100
H895        H  0.70936983  0.17719517  0.28114981     0.12100
H896        H  0.55730816  0.13712502  0.32768814     0.09200
H897        H  0.55783441  0.19422299  0.30567099     0.12500
H898        H  0.67574384  0.22008734  0.27230136     0.14300
C899        C  0.61910090  0.02629286  0.18209906    -0.01200
C900        C  0.59908406  0.02055414  0.20354680    -0.09200
C901        C  0.59790145  0.05460454  0.21451464    -0.18000
C902        C  0.61783440  0.09630477  0.20470890     0.04400
C903        C  0.64225182  0.10351927  0.18434007     0.18600
C904        C  0.64179889  0.06844103  0.17289911    -0.19400
C905        C  0.66668523  0.14564008  0.17559348    -0.20700
C906        C  0.66714657  0.18056436  0.18672870    -0.19200
C907        C  0.64121258  0.17381249  0.20607768     0.20000
C908        C  0.61500696  0.13121509  0.21476429     0.02100
C909        C  0.58570652  0.12490821  0.23261692    -0.14000
C910        C  0.58449167  0.15983790  0.24243367    -0.11700
C911        C  0.61339433  0.20227863  0.23546206     0.01600
C912        C  0.64087628  0.20910817  0.21678238    -0.23900
H913        H  0.58404357  0.98943337  0.21207972     0.09600
H914        H  0.58209646  0.04762004  0.23098251     0.13200
H915        H  0.65839782  0.07404210  0.15664512     0.11900
H916        H  0.68603834  0.15168745  0.16026194     0.13100
H917        H  0.68701739  0.21286323  0.17983161     0.12100
H918        H  0.56241472  0.09319348  0.23886104     0.09200
H919        H  0.56102538  0.15360379  0.25582322     0.12500
H920        H  0.66229328  0.24181669  0.21078910     0.14300
C921        C  0.22351645  0.21943635  0.12943743    -0.01200
C922        C  0.17980114  0.20029114  0.13560747    -0.09200
C923        C  0.14761478  0.16846635  0.12184302    -0.18000
C924        C  0.15821172  0.15515996  0.10115271     0.04400
C925        C  0.20262763  0.17569321  0.09468684     0.18600
C926        C  0.23471460  0.20696269  0.10896592    -0.19400
C927        C  0.21475395  0.16512765  0.07393120    -0.20700
C928        C  0.18369910  0.13469936  0.05932690    -0.19200
C929        C  0.13979931  0.11329978  0.06534231     0.20000
C930        C  0.12643763  0.12263375  0.08653213     0.02100
C931        C  0.08193274  0.09862329  0.09223042    -0.14000
C932        C  0.05204497  0.06719316  0.07739947    -0.11700
C933        C  0.06519658  0.05909988  0.05624867     0.01600
C934        C  0.10916662  0.08236067  0.05031527    -0.23900
H935        H  0.17053790  0.20965715  0.15134319     0.09600
H936        H  0.11471880  0.15531398  0.12772737     0.13200
H937        H  0.26852971  0.22228176  0.10396125     0.11900
H938        H  0.24851841  0.18081860  0.06884720     0.13100
H939        H  0.19415320  0.12756957  0.04328259     0.12100
H940        H  0.06924520  0.10295088  0.10815300     0.09200
H941        H  0.01823777  0.04954102  0.08237892     0.12500
H942        H  0.11968125  0.07580286  0.03411611     0.14300
C943        C  0.53728352  0.26989858  0.22806754    -0.01200
C944        C  0.49605779  0.23342299  0.22981236    -0.09200
C945        C  0.46099017  0.23159209  0.21810031    -0.18000
C946        C  0.46616006  0.26684593  0.20454449     0.04400
C947        C  0.50862609  0.30311469  0.20225010     0.18600
C948        C  0.54376214  0.30389288  0.21361683    -0.19400
C949        C  0.51551707  0.33925782  0.18947948    -0.20700
C950        C  0.48096006  0.34078228  0.17938882    -0.19200
C951        C  0.43871689  0.30600106  0.18160638     0.20000
C952        C  0.43068021  0.26813449  0.19383976     0.02100
C953        C  0.38736253  0.23367334  0.19517048    -0.14000
C954        C  0.35351168  0.23720514  0.18525966    -0.11700
C955        C  0.36160975  0.27511746  0.17389239     0.01600
C956        C  0.40431184  0.30921949  0.17194527    -0.23900
H957        H  0.49071705  0.20694554  0.24102475     0.09600
H958        H  0.43006756  0.20284593  0.22068062     0.13200
H959        H  0.57551558  0.33250542  0.21272088     0.11900
H960        H  0.54777683  0.36697922  0.18770049     0.13100
H961        H  0.48727481  0.36960239  0.16997693     0.12100
H962        H  0.37849414  0.20372122  0.20389173     0.09200
H963        H  0.32062495  0.21062399  0.18706490     0.12500
H964        H  0.41065951  0.33853149  0.16300908     0.14300
C965        C  0.28300625  0.35824075  0.17368256    -0.01200
C966        C  0.24391227  0.35190155  0.18284307    -0.09200
C967        C  0.24117721  0.38627503  0.19259535    -0.18000
C968        C  0.27773360  0.42841517  0.19343856     0.04400
C969        C  0.31692051  0.43493850  0.18334038     0.18600
C970        C  0.31921780  0.40001764  0.17369216    -0.19400
C971        C  0.35376796  0.47617179  0.18314045    -0.20700
C972        C  0.35273966  0.51119443  0.19296889    -0.19200
C973        C  0.31501426  0.50572987  0.20348782     0.20000
C974        C  0.27693832  0.46422784  0.20399207     0.02100
C975        C  0.23995222  0.46039451  0.21526868    -0.14000
C976        C  0.24086167  0.49622748  0.22552371    -0.11700
C977        C  0.27846666  0.53668147  0.22496165     0.01600
C978        C  0.31525922  0.54151175  0.21374324    -0.23900
H979        H  0.21556055  0.31986669  0.18309728     0.09600
H980        H  0.21007992  0.37868964  0.19944924     0.13200
H981        H  0.34941272  0.40527278  0.16627897     0.11900
H982        H  0.38365420  0.48135457  0.17537593     0.13100
H983        H  0.38182843  0.54271619  0.19255689     0.12100
H984        H  0.20995281  0.43018601  0.21661885     0.09200
H985        H  0.21196091  0.49239488  0.23385559     0.12500
H986        H  0.34433411  0.57309852  0.21337832     0.14300
loop_ 
_geom_bond_atom_site_label_1 
_geom_bond_atom_site_label_2 
_geom_bond_distance 
_geom_bond_site_symmetry_2 
_ccdc_geom_bond_type 
C1            C2   1.406       .  A
C1            C6   1.406       .  A
C1          C921   1.481       .  S
C2            C3   1.404       .  A
C2            H7   1.084       .  S
C3            C4   1.402       .  A
C3          C955   1.480       .  S
C4            C5   1.403       .  A
C4            H8   1.084       .  S
C5            C6   1.405       .  A
C5          C965   1.483       .  S
C6            H9   1.084       .  S
C10          H11   1.111       .  S
C10          C16   1.532       .  S
C10          C15   1.538       .  S
C10          C14   1.536       .  S
C12          H13   1.111       .  S
C12          C18   1.534       .  S
C12          C17   1.535       .  S
C12          C19   1.539       .  S
C14          C17   1.378       .  D
C14         C911   1.485       .  S
C15          C18   1.380       .  D
C15         C833   1.492       .  S
C16          C19   1.377       .  D
C16         C943   1.479       .  S
C17         C889   1.486       .  S
C18         C811   1.478       .  S
C19         C855   1.494       .  S
C20          H21   1.112       .  S
C20          C26   1.529       .  S
C20          C25   1.532       .  S
C20          C24   1.532       .  S
C22          H23   1.111       .  S
C22          C28   1.531       .  S
C22          C27   1.537       .  S
C22          C29   1.537       .  S
C24          C27   1.380       .  D
C24         C713   1.480       .  S
C25          C28   1.370       .  D
C25         C977   1.473       .  S
C26          C29   1.377       .  D
C26         C745   1.478       .  S
C27         C723   1.486       .  S
C28         C789   1.473       .  S
C29         C767   1.485       .  S
C30          C31   1.409       .  A
C30          C35   1.402       .  A
C30         C691   1.480       .  S
C31          C32   1.414       .  A
C31          H36   1.083       .  S
C32          C33   1.409       .  A
C32         C845   1.499       .  S
C33          C34   1.400       .  A
C33          H37   1.082       .  S
C34          C35   1.399       .  A
C34         C701   1.479   1_655  S
C35          H38   1.084   1_655  S
C39          C40   1.405       .  A
C39          C44   1.403       .  A
C39         C657   1.475       .  S
C40          C41   1.409       .  A
C40          H45   1.082   1_565  S
C41          C42   1.410       .  A
C41         C899   1.495   1_565  S
C42          C43   1.400       .  A
C42          H46   1.083       .  S
C43          C44   1.399       .  A
C43         C757   1.479       .  S
C44          H47   1.084       .  S
C48          C49   1.406       .  A
C48          C53   1.403       .  A
C48         C635   1.479       .  S
C49          C50   1.411       .  A
C49          H54   1.082   1_655  S
C50          C51   1.410       .  A
C50         C735   1.498   1_655  S
C51          C52   1.400       .  A
C51          H55   1.082       .  S
C52          C53   1.399       .  A
C52         C823   1.477       .  S
C53          H56   1.084       .  S
C57          C58   1.404       .  A
C57          C62   1.406       .  A
C57         C613   1.475       .  S
C58          C59   1.398       .  A
C58          H63   1.084   1_565  S
C59          C60   1.399       .  A
C59         C877   1.475   1_565  S
C60          C61   1.407       .  A
C60          H64   1.084       .  S
C61          C62   1.407       .  A
C61         C779   1.488       .  S
C62          H65   1.083       .  S
C66          C67   1.405       .  A
C66          C71   1.401       .  A
C66         C591   1.473       .  S
C67          C68   1.408       .  A
C67          H72   1.083       .  S
C68          C69   1.408       .  A
C68         C867   1.496       .  S
C69          C70   1.404       .  A
C69          H73   1.082       .  S
C70          C71   1.402       .  A
C70         C801   1.485       .  S
C71          H74   1.084       .  S
Zn75         O79   1.956       .  S
Zn75         O80   2.011       .  S
Zn75         O84   2.006   1_565  S
Zn75         O91   2.020       .  S
Zn76         O79   1.974       .  S
Zn76         O81   2.043   1_655  S
Zn76         O83   2.042       .  S
Zn76         O87   2.039       .  S
Zn77         O79   1.965   1_545  S
Zn77         O82   2.029   1_655  S
Zn77         O85   2.019   1_645  S
Zn77         O88   2.029       .  S
Zn78         O79   1.956       .  S
Zn78         O86   2.014   1_565  S
Zn78         O89   2.004       .  S
Zn78         O90   2.012       .  S
O80          C92   1.273       .  A
O81          C93   1.277       .  A
O82          C94   1.275       .  A
O83          C92   1.276       .  A
O84          C94   1.273   1_655  A
O85          C93   1.275       .  A
O86          C95   1.272       .  A
O87          C96   1.277       .  A
O88          C95   1.274       .  A
O89          C96   1.273       .  A
O90          C97   1.273       .  A
O91          C97   1.273       .  A
C92         C647   1.485       .  S
C93         C569   1.484       .  S
C94         C603   1.484       .  S
C95         C547   1.484       .  S
C96         C525   1.480       .  S
C97         C625   1.480       .  S
Zn98        O102   1.959       .  S
Zn98        O103   2.004       .  S
Zn98        O107   2.018       .  S
Zn98        O114   2.025       .  S
Zn99        O102   1.970   1_556  S
Zn99        O104   2.018   1_565  S
Zn99        O106   2.029   1_556  S
Zn99        O110   2.037       .  S
Zn100       O102   1.970   1_456  S
Zn100       O105   2.032   1_566  S
Zn100       O108   2.037   1_465  S
Zn100       O111   2.021       .  S
Zn101       O102   1.961   1_556  S
Zn101       O109   2.022       .  S
Zn101       O112   2.020       .  S
Zn101       O113   2.033   1_556  S
O103        C115   1.273       .  A
O104        C116   1.274       .  A
O105        C117   1.276       .  A
O106        C115   1.275       .  A
O107        C117   1.274   1_665  A
O108        C116   1.276       .  A
O109        C118   1.275   1_655  A
O110        C119   1.276       .  A
O111        C118   1.274       .  A
O112        C119   1.274       .  A
O113        C120   1.276       .  A
O114        C120   1.274       .  A
C115        C669   1.479       .  S
C116        C515   1.482       .  S
C117        C933   1.481       .  S
C118        C481   1.481       .  S
C119        C459   1.482       .  S
C120        C679   1.488       .  S
C121        C122   1.408       .  A
C121        C126   1.413       .  A
C121        C559   1.493       .  S
C122        C123   1.401       .  A
C122        H127   1.083   1_655  S
C123        C124   1.399       .  A
C123        C437   1.485   1_655  S
C124        C125   1.406       .  A
C124        H128   1.082       .  S
C125        C126   1.409       .  A
C125        C415   1.494       .  S
C126        H129   1.082       .  S
C130        C131   1.410       .  A
C130        C135   1.410       .  A
C130        C503   1.494       .  S
C131        C132   1.406       .  A
C131        H136   1.083   1_655  S
C132        C133   1.403       .  A
C132        C405   1.487   1_655  S
C133        C134   1.402       .  A
C133        H137   1.084       .  S
C134        C135   1.404       .  A
C134        C371   1.483       .  S
C135        H138   1.083       .  S
C139        H140   1.111       .  S
C139        C145   1.540       .  S
C139        C144   1.536       .  S
C139        C143   1.536       .  S
C141        H142   1.111       .  S
C141        C147   1.532       .  S
C141        C146   1.536       .  S
C141        C148   1.533       .  S
C143        C146   1.379       .  D
C143        C283   1.482       .  S
C144        C147   1.371       .  D
C144        C327   1.480       .  S
C145        C148   1.378       .  D
C145        C427   1.490       .  S
C146        C305   1.487       .  S
C147        C349   1.473       .  S
C148        C383   1.481       .  S
C149        H150   1.111       .  S
C149        C155   1.532       .  S
C149        C154   1.533       .  S
C149        C153   1.538       .  S
C151        H152   1.112       .  S
C151        C157   1.532       .  S
C151        C156   1.534       .  S
C151        C158   1.533       .  S
C153        C156   1.381       .  D
C153        C195   1.488       .  S
C154        C157   1.370       .  D
C154        C393   1.477       .  S
C155        C158   1.371       .  D
C155        C251   1.471       .  S
C156        C229   1.482       .  S
C157        C449   1.469       .  S
C158        C261   1.478       .  S
C159        C160   1.411       .  A
C159        C164   1.412       .  A
C159        C581   1.498       .  S
C160        C161   1.406       .  A
C160        H165   1.083       .  S
C161        C162   1.404       .  A
C161        C273   1.487       .  S
C162        C163   1.404       .  A
C162        H166   1.084       .  S
C163        C164   1.408       .  A
C163        C339   1.491   1_565  S
C164        H167   1.083   1_565  S
C168        C169   1.409       .  A
C168        C173   1.412       .  A
C168        C537   1.493       .  S
C169        C170   1.401       .  A
C169        H174   1.083       .  S
C170        C171   1.401       .  A
C170        C217   1.479       .  S
C171        C172   1.404       .  A
C171        H175   1.084       .  S
C172        C173   1.408       .  A
C172        C295   1.487       .  S
C173        H176   1.083       .  S
C177        C178   1.416       .  A
C177        C182   1.415       .  A
C177        C471   1.494       .  S
C178        C179   1.406       .  A
C178        H183   1.083       .  S
C179        C180   1.399       .  A
C179        C317   1.492       .  S
C180        C181   1.398       .  A
C180        H184   1.084       .  S
C181        C182   1.404       .  A
C181        C207   1.491       .  S
C182        H185   1.082       .  S
C186        C187   1.410       .  A
C186        C191   1.411       .  A
C186        C493   1.491       .  S
C187        C188   1.404       .  A
C187        H192   1.083   1_565  S
C188        C189   1.400       .  A
C188        C361   1.484   1_565  S
C189        C190   1.403       .  A
C189        H193   1.084       .  S
C190        C191   1.405       .  A
C190        C239   1.487       .  S
C191        H194   1.083       .  S
C195        C196   1.401       .  A
C195        C200   1.397       .  A
C196        C197   1.402       .  A
C196        H209   1.082       .  S
C197        C198   1.415       .  A
C197        H210   1.078       .  S
C198        C204   1.432       .  A
C198        C199   1.423       .  A
C199        C201   1.396       .  A
C199        C200   1.397       .  A
C200        H211   1.083       .  S
C201        C202   1.383       .  A
C201        H212   1.084       .  S
C202        C203   1.398       .  A
C202        H213   1.084       .  S
C203        C204   1.420       .  A
C203        C208   1.394       .  A
C204        C205   1.419       .  A
C205        C206   1.406       .  A
C205        H214   1.078       .  S
C206        C207   1.402       .  A
C206        H215   1.083       .  S
C207        C208   1.403       .  A
C208        H216   1.084       .  S
C217        C218   1.398       .  A
C217        C222   1.400       .  A
C218        C219   1.397       .  A
C218        H231   1.084       .  S
C219        C220   1.416       .  A
C219        H232   1.077       .  S
C220        C226   1.430       .  A
C220        C221   1.423       .  A
C221        C223   1.400       .  A
C221        C222   1.406       .  A
C222        H233   1.085       .  S
C223        C224   1.391       .  A
C223        H234   1.084       .  S
C224        C225   1.399       .  A
C224        H235   1.084       .  S
C225        C226   1.423       .  A
C225        C230   1.405       .  A
C226        C227   1.416       .  A
C227        C228   1.396       .  A
C227        H236   1.077       .  S
C228        C229   1.397       .  A
C228        H237   1.084       .  S
C229        C230   1.400       .  A
C230        H238   1.084       .  S
C239        C240   1.401       .  A
C239        C244   1.404       .  A
C240        C241   1.391       .  A
C240        H253   1.083       .  S
C241        C242   1.412       .  A
C241        H254   1.076       .  S
C242        C248   1.427       .  A
C242        C243   1.422       .  A
C243        C245   1.401       .  A
C243        C244   1.408       .  A
C244        H255   1.084       .  S
C245        C246   1.392       .  A
C245        H256   1.084       .  S
C246        C247   1.400       .  A
C246        H257   1.084       .  S
C247        C248   1.423       .  A
C247        C252   1.406       .  A
C248        C249   1.416       .  A
C249        C250   1.392       .  A
C249        H258   1.076       .  S
C250        C251   1.393       .  A
C250        H259   1.084       .  S
C251        C252   1.398       .  A
C252        H260   1.084       .  S
C261        C262   1.397       .  A
C261        C266   1.397       .  A
C262        C263   1.397       .  A
C262        H275   1.083       .  S
C263        C264   1.416       .  A
C263        H276   1.077       .  S
C264        C270   1.432       .  A
C264        C265   1.424       .  A
C265        C267   1.399       .  A
C265        C266   1.406       .  A
C266        H277   1.085       .  S
C267        C268   1.390       .  A
C267        H278   1.084       .  S
C268        C269   1.400       .  A
C268        H279   1.084       .  S
C269        C270   1.422       .  A
C269        C274   1.405       .  A
C270        C271   1.416       .  A
C271        C272   1.399       .  A
C271        H280   1.077       .  S
C272        C273   1.401       .  A
C272        H281   1.083       .  S
C273        C274   1.402       .  A
C274        H282   1.085       .  S
C283        C284   1.398       .  A
C283        C288   1.398       .  A
C284        C285   1.398       .  A
C284        H297   1.084       .  S
C285        C286   1.416       .  A
C285        H298   1.077       .  S
C286        C292   1.432       .  A
C286        C287   1.424       .  A
C287        C289   1.399       .  A
C287        C288   1.407       .  A
C288        H299   1.085       .  S
C289        C290   1.390       .  A
C289        H300   1.084       .  S
C290        C291   1.400       .  A
C290        H301   1.084       .  S
C291        C292   1.422       .  A
C291        C296   1.405       .  A
C292        C293   1.416       .  A
C293        C294   1.400       .  A
C293        H302   1.077       .  S
C294        C295   1.401       .  A
C294        H303   1.083       .  S
C295        C296   1.402       .  A
C296        H304   1.084       .  S
C305        C306   1.399       .  A
C305        C310   1.404       .  A
C306        C307   1.389       .  A
C306        H319   1.082       .  S
C307        C308   1.411       .  A
C307        H320   1.078       .  S
C308        C314   1.423       .  A
C308        C309   1.419       .  A
C309        C311   1.402       .  A
C309        C310   1.410       .  A
C310        H321   1.082       .  S
C311        C312   1.397       .  A
C311        H322   1.083       .  S
C312        C313   1.402       .  A
C312        H323   1.084       .  S
C313        C314   1.422       .  A
C313        C318   1.413       .  A
C314        C315   1.407       .  A
C315        C316   1.386       .  A
C315        H324   1.079       .  S
C316        C317   1.405       .  A
C316        H325   1.083       .  S
C317        C318   1.406       .  A
C318        H326   1.084       .  S
C327        C328   1.397       .  A
C327        C332   1.397       .  A
C328        C329   1.398       .  A
C328        H341   1.083       .  S
C329        C330   1.416       .  A
C329        H342   1.077       .  S
C330        C336   1.433       .  A
C330        C331   1.425       .  A
C331        C333   1.399       .  A
C331        C332   1.407       .  A
C332        H343   1.084       .  S
C333        C334   1.390       .  A
C333        H344   1.084       .  S
C334        C335   1.400       .  A
C334        H345   1.084       .  S
C335        C336   1.422       .  A
C335        C340   1.406       .  A
C336        C337   1.416       .  A
C337        C338   1.400       .  A
C337        H346   1.078       .  S
C338        C339   1.402       .  A
C338        H347   1.083       .  S
C339        C340   1.404       .  A
C340        H348   1.084       .  S
C349        C350   1.395       .  A
C349        C354   1.396       .  A
C350        C351   1.396       .  A
C350        H363   1.084       .  S
C351        C352   1.417       .  A
C351        H364   1.076       .  S
C352        C358   1.429       .  A
C352        C353   1.423       .  A
C353        C355   1.399       .  A
C353        C354   1.403       .  A
C354        H365   1.084       .  S
C355        C356   1.390       .  A
C355        H366   1.084       .  S
C356        C357   1.399       .  A
C356        H367   1.084       .  S
C357        C358   1.423       .  A
C357        C362   1.406       .  A
C358        C359   1.414       .  A
C359        C360   1.394       .  A
C359        H368   1.076       .  S
C360        C361   1.401       .  A
C360        H369   1.084   1_545  S
C361        C362   1.401       .  A
C362        H370   1.084       .  S
C371        C372   1.400       .  A
C371        C376   1.400       .  A
C372        C373   1.397       .  A
C372        H385   1.084       .  S
C373        C374   1.415       .  A
C373        H386   1.077       .  S
C374        C380   1.431       .  A
C374        C375   1.423       .  A
C375        C377   1.399       .  A
C375        C376   1.406       .  A
C376        H387   1.085       .  S
C377        C378   1.390       .  A
C377        H388   1.084       .  S
C378        C379   1.399       .  A
C378        H389   1.084       .  S
C379        C380   1.423       .  A
C379        C384   1.405       .  A
C380        C381   1.416       .  A
C381        C382   1.398       .  A
C381        H390   1.077       .  S
C382        C383   1.397       .  A
C382        H391   1.082       .  S
C383        C384   1.399       .  A
C384        H392   1.085       .  S
C393        C394   1.397       .  A
C393        C398   1.396       .  A
C394        C395   1.397       .  A
C394        H407   1.083       .  S
C395        C396   1.416       .  A
C395        H408   1.077       .  S
C396        C402   1.431       .  A
C396        C397   1.424       .  A
C397        C399   1.399       .  A
C397        C398   1.405       .  A
C398        H409   1.085       .  S
C399        C400   1.389       .  A
C399        H410   1.084       .  S
C400        C401   1.399       .  A
C400        H411   1.084       .  S
C401        C402   1.422       .  A
C401        C406   1.405       .  A
C402        C403   1.415       .  A
C403        C404   1.398       .  A
C403        H412   1.077       .  S
C404        C405   1.401       .  A
C404        H413   1.083       .  S
C405        C406   1.402       .  A
C406        H414   1.085       .  S
C415        C416   1.405       .  A
C415        C420   1.407       .  A
C416        C417   1.391       .  A
C416        H429   1.083       .  S
C417        C418   1.410       .  A
C417        H430   1.079       .  S
C418        C424   1.425       .  A
C418        C419   1.420       .  A
C419        C421   1.402       .  A
C419        C420   1.410       .  A
C420        H431   1.084       .  S
C421        C422   1.395       .  A
C421        H432   1.084       .  S
C422        C423   1.401       .  A
C422        H433   1.084       .  S
C423        C424   1.421       .  A
C423        C428   1.409       .  A
C424        C425   1.412       .  A
C425        C426   1.391       .  A
C425        H434   1.078       .  S
C426        C427   1.401       .  A
C426        H435   1.082       .  S
C427        C428   1.403       .  A
C428        H436   1.084       .  S
C437        C438   1.401       .  A
C437        C442   1.402       .  A
C438        C439   1.394       .  A
C438        H451   1.083       .  S
C439        C440   1.414       .  A
C439        H452   1.076       .  S
C440        C446   1.428       .  A
C440        C441   1.423       .  A
C441        C443   1.399       .  A
C441        C442   1.404       .  A
C442        H453   1.084       .  S
C443        C444   1.389       .  A
C443        H454   1.084       .  S
C444        C445   1.399       .  A
C444        H455   1.084       .  S
C445        C446   1.423       .  A
C445        C450   1.402       .  A
C446        C447   1.417       .  A
C447        C448   1.395       .  A
C447        H456   1.076       .  S
C448        C449   1.394       .  A
C448        H457   1.083       .  S
C449        C450   1.395       .  A
C450        H458   1.085       .  S
C459        C460   1.401       .  A
C459        C464   1.402       .  A
C460        C461   1.400       .  A
C460        H473   1.083       .  S
C461        C462   1.416       .  A
C461        H474   1.078       .  S
C462        C468   1.433       .  A
C462        C463   1.422       .  A
C463        C465   1.399       .  A
C463        C464   1.406       .  A
C464        H475   1.085       .  S
C465        C466   1.390       .  A
C465        H476   1.084       .  S
C466        C467   1.399       .  A
C466        H477   1.084       .  S
C467        C468   1.422       .  A
C467        C472   1.406       .  A
C468        C469   1.414       .  A
C469        C470   1.399       .  A
C469        H478   1.078       .  S
C470        C471   1.404       .  A
C470        H479   1.082       .  S
C471        C472   1.404       .  A
C472        H480   1.084       .  S
C481        C482   1.400       .  A
C481        C486   1.402       .  A
C482        C483   1.396       .  A
C482        H495   1.083       .  S
C483        C484   1.415       .  A
C483        H496   1.077       .  S
C484        C490   1.430       .  A
C484        C485   1.422       .  A
C485        C487   1.400   1_565  A
C485        C486   1.406       .  A
C486        H497   1.084   1_565  S
C487        C488   1.391       .  A
C487        H498   1.084       .  S
C488        C489   1.400   1_545  A
C488        H499   1.084       .  S
C489        C490   1.421       .  A
C489        C494   1.405       .  A
C490        C491   1.414       .  A
C491        C492   1.396       .  A
C491        H500   1.078       .  S
C492        C493   1.402       .  A
C492        H501   1.083       .  S
C493        C494   1.404       .  A
C494        H502   1.084       .  S
C503        C504   1.404       .  A
C503        C508   1.404       .  A
C504        C505   1.399       .  A
C504        H517   1.083   1_655  S
C505        C506   1.415       .  A
C505        H518   1.078   1_655  S
C506        C512   1.432       .  A
C506        C507   1.422       .  A
C507        C509   1.400       .  A
C507        C508   1.406       .  A
C508        H519   1.084       .  S
C509        C510   1.390       .  A
C509        H520   1.084       .  S
C510        C511   1.399       .  A
C510        H521   1.084       .  S
C511        C512   1.422       .  A
C511        C516   1.406       .  A
C512        C513   1.416       .  A
C513        C514   1.400       .  A
C513        H522   1.078   1_655  S
C514        C515   1.401       .  A
C514        H523   1.083   1_655  S
C515        C516   1.402       .  A
C516        H524   1.085       .  S
C525        C526   1.401       .  A
C525        C530   1.401       .  A
C526        C527   1.396       .  A
C526        H539   1.083       .  S
C527        C528   1.414       .  A
C527        H540   1.077       .  S
C528        C534   1.431       .  A
C528        C529   1.423       .  A
C529        C531   1.399       .  A
C529        C530   1.407       .  A
C530        H541   1.085       .  S
C531        C532   1.391       .  A
C531        H542   1.084       .  S
C532        C533   1.400       .  A
C532        H543   1.084       .  S
C533        C534   1.422       .  A
C533        C538   1.407       .  A
C534        C535   1.414       .  A
C535        C536   1.396       .  A
C535        H544   1.077       .  S
C536        C537   1.403       .  A
C536        H545   1.083       .  S
C537        C538   1.405       .  A
C538        H546   1.084       .  S
C547        C548   1.402       .  A
C547        C552   1.402       .  A
C548        C549   1.397       .  A
C548        H561   1.083       .  S
C549        C550   1.414       .  A
C549        H562   1.077       .  S
C550        C556   1.432       .  A
C550        C551   1.423       .  A
C551        C553   1.399   1_655  A
C551        C552   1.406       .  A
C552        H563   1.084   1_655  S
C553        C554   1.389       .  A
C553        H564   1.084       .  S
C554        C555   1.400   1_455  A
C554        H565   1.084       .  S
C555        C556   1.421       .  A
C555        C560   1.404       .  A
C556        C557   1.416       .  A
C557        C558   1.399       .  A
C557        H566   1.077       .  S
C558        C559   1.402       .  A
C558        H567   1.083       .  S
C559        C560   1.406       .  A
C560        H568   1.083   1_655  S
C569        C570   1.401       .  A
C569        C574   1.403       .  A
C570        C571   1.397       .  A
C570        H583   1.083   1_565  S
C571        C572   1.414       .  A
C571        H584   1.077   1_565  S
C572        C578   1.433       .  A
C572        C573   1.423       .  A
C573        C575   1.400       .  A
C573        C574   1.409       .  A
C574        H585   1.084       .  S
C575        C576   1.392       .  A
C575        H586   1.084       .  S
C576        C577   1.401       .  A
C576        H587   1.084       .  S
C577        C578   1.421       .  A
C577        C582   1.408       .  A
C578        C579   1.415       .  A
C579        C580   1.398       .  A
C579        H588   1.077   1_565  S
C580        C581   1.404       .  A
C580        H589   1.083   1_565  S
C581        C582   1.407       .  A
C582        H590   1.083       .  S
C591        C592   1.396       .  A
C591        C596   1.399       .  A
C592        C593   1.395       .  A
C592        H605   1.083       .  S
C593        C594   1.416       .  A
C593        H606   1.078       .  S
C594        C600   1.429       .  A
C594        C595   1.423       .  A
C595        C597   1.400       .  A
C595        C596   1.406       .  A
C596        H607   1.085       .  S
C597        C598   1.391       .  A
C597        H608   1.084       .  S
C598        C599   1.400       .  A
C598        H609   1.084       .  S
C599        C600   1.423       .  A
C599        C604   1.407       .  A
C600        C601   1.413       .  A
C601        C602   1.394       .  A
C601        H610   1.078       .  S
C602        C603   1.402       .  A
C602        H611   1.083       .  S
C603        C604   1.403       .  A
C604        H612   1.085       .  S
C613        C614   1.397       .  A
C613        C618   1.400       .  A
C614        C615   1.394       .  A
C614        H627   1.084       .  S
C615        C616   1.415       .  A
C615        H628   1.077       .  S
C616        C622   1.429       .  A
C616        C617   1.423       .  A
C617        C619   1.400       .  A
C617        C618   1.406       .  A
C618        H629   1.084       .  S
C619        C620   1.391       .  A
C619        H630   1.084       .  S
C620        C621   1.400       .  A
C620        H631   1.084       .  S
C621        C622   1.422       .  A
C621        C626   1.406       .  A
C622        C623   1.414       .  A
C623        C624   1.394       .  A
C623        H632   1.077       .  S
C624        C625   1.400       .  A
C624        H633   1.083       .  S
C625        C626   1.403       .  A
C626        H634   1.085       .  S
C635        C636   1.398       .  A
C635        C640   1.400       .  A
C636        C637   1.399       .  A
C636        H649   1.083       .  S
C637        C638   1.417       .  A
C637        H650   1.078       .  S
C638        C644   1.431       .  A
C638        C639   1.422       .  A
C639        C641   1.399       .  A
C639        C640   1.404       .  A
C640        H651   1.085       .  S
C641        C642   1.390       .  A
C641        H652   1.084       .  S
C642        C643   1.400       .  A
C642        H653   1.084       .  S
C643        C644   1.424       .  A
C643        C648   1.408       .  A
C644        C645   1.413       .  A
C645        C646   1.396       .  A
C645        H654   1.078       .  S
C646        C647   1.402       .  A
C646        H655   1.083       .  S
C647        C648   1.402       .  A
C648        H656   1.084       .  S
C657        C658   1.398       .  A
C657        C662   1.398       .  A
C658        C659   1.398       .  A
C658        H671   1.084   1_565  S
C659        C660   1.416       .  A
C659        H672   1.077   1_565  S
C660        C666   1.430       .  A
C660        C661   1.423       .  A
C661        C663   1.398       .  A
C661        C662   1.402       .  A
C662        H673   1.085       .  S
C663        C664   1.388       .  A
C663        H674   1.084       .  S
C664        C665   1.399       .  A
C664        H675   1.084       .  S
C665        C666   1.422       .  A
C665        C670   1.402       .  A
C666        C667   1.416       .  A
C667        C668   1.398       .  A
C667        H676   1.077       .  S
C668        C669   1.400       .  A
C668        H677   1.083       .  S
C669        C670   1.401       .  A
C670        H678   1.085       .  S
C679        C680   1.402       .  A
C679        C684   1.405       .  A
C680        C681   1.398       .  A
C680        H693   1.083       .  S
C681        C682   1.416       .  A
C681        H694   1.078       .  S
C682        C688   1.433       .  A
C682        C683   1.422       .  A
C683        C685   1.400       .  A
C683        C684   1.408       .  A
C684        H695   1.085       .  S
C685        C686   1.392       .  A
C685        H696   1.084       .  S
C686        C687   1.400       .  A
C686        H697   1.083       .  S
C687        C688   1.424       .  A
C687        C692   1.410       .  A
C688        C689   1.415       .  A
C689        C690   1.396       .  A
C689        H698   1.077       .  S
C690        C691   1.398       .  A
C690        H699   1.084       .  S
C691        C692   1.400       .  A
C692        H700   1.084       .  S
C701        C702   1.399       .  A
C701        C706   1.399       .  A
C702        C703   1.397       .  A
C702        H715   1.083       .  S
C703        C704   1.416       .  A
C703        H716   1.077       .  S
C704        C710   1.430       .  A
C704        C705   1.423       .  A
C705        C707   1.399       .  A
C705        C706   1.404       .  A
C706        H717   1.085       .  S
C707        C708   1.389       .  A
C707        H718   1.084       .  S
C708        C709   1.398       .  A
C708        H719   1.084       .  S
C709        C710   1.423       .  A
C709        C714   1.402       .  A
C710        C711   1.417       .  A
C711        C712   1.398       .  A
C711        H720   1.077       .  S
C712        C713   1.397       .  A
C712        H721   1.084       .  S
C713        C714   1.398       .  A
C714        H722   1.085       .  S
C723        C724   1.399       .  A
C723        C728   1.399       .  A
C724        C725   1.401       .  A
C724        H737   1.083       .  S
C725        C726   1.417       .  A
C725        H738   1.078       .  S
C726        C732   1.430       .  A
C726        C727   1.421       .  A
C727        C729   1.398       .  A
C727        C728   1.398       .  A
C728        H739   1.083       .  S
C729        C730   1.386       .  A
C729        H740   1.084       .  S
C730        C731   1.399       .  A
C730        H741   1.084       .  S
C731        C732   1.420       .  A
C731        C736   1.401       .  A
C732        C733   1.414       .  A
C733        C734   1.400       .  A
C733        H742   1.078       .  S
C734        C735   1.406       .  A
C734        H743   1.082       .  S
C735        C736   1.405       .  A
C736        H744   1.083   1_455  S
C745        C746   1.397       .  A
C745        C750   1.397       .  A
C746        C747   1.396       .  A
C746        H759   1.084       .  S
C747        C748   1.416       .  A
C747        H760   1.077       .  S
C748        C754   1.430       .  A
C748        C749   1.424       .  A
C749        C751   1.399       .  A
C749        C750   1.405       .  A
C750        H761   1.085       .  S
C751        C752   1.390       .  A
C751        H762   1.084       .  S
C752        C753   1.399       .  A
C752        H763   1.084       .  S
C753        C754   1.423       .  A
C753        C758   1.405       .  A
C754        C755   1.415       .  A
C755        C756   1.397       .  A
C755        H764   1.078       .  S
C756        C757   1.399       .  A
C756        H765   1.083       .  S
C757        C758   1.400       .  A
C758        H766   1.085       .  S
C767        C768   1.399       .  A
C767        C772   1.402       .  A
C768        C769   1.389       .  A
C768        H781   1.081       .  S
C769        C770   1.411       .  A
C769        H782   1.078       .  S
C770        C776   1.423       .  A
C770        C771   1.421       .  A
C771        C773   1.401       .  A
C771        C772   1.408       .  A
C772        H783   1.084       .  S
C773        C774   1.395       .  A
C773        H784   1.084       .  S
C774        C775   1.402       .  A
C774        H785   1.084       .  S
C775        C776   1.420       .  A
C775        C780   1.409       .  A
C776        C777   1.411       .  A
C777        C778   1.390       .  A
C777        H786   1.078       .  S
C778        C779   1.402       .  A
C778        H787   1.083       .  S
C779        C780   1.406       .  A
C780        H788   1.084       .  S
C789        C790   1.394       .  A
C789        C794   1.397       .  A
C790        C791   1.395       .  A
C790        H803   1.083       .  S
C791        C792   1.416       .  A
C791        H804   1.077       .  S
C792        C798   1.429       .  A
C792        C793   1.424       .  A
C793        C795   1.399       .  A
C793        C794   1.404       .  A
C794        H805   1.085       .  S
C795        C796   1.390       .  A
C795        H806   1.084       .  S
C796        C797   1.400       .  A
C796        H807   1.084       .  S
C797        C798   1.422       .  A
C797        C802   1.405       .  A
C798        C799   1.414       .  A
C799        C800   1.395       .  A
C799        H808   1.077       .  S
C800        C801   1.401       .  A
C800        H809   1.083       .  S
C801        C802   1.402       .  A
C802        H810   1.084       .  S
C811        C812   1.397       .  A
C811        C816   1.398       .  A
C812        C813   1.396       .  A
C812        H825   1.084       .  S
C813        C814   1.416       .  A
C813        H826   1.077       .  S
C814        C820   1.429       .  A
C814        C815   1.423       .  A
C815        C817   1.399       .  A
C815        C816   1.403       .  A
C816        H827   1.085       .  S
C817        C818   1.390       .  A
C817        H828   1.084       .  S
C818        C819   1.400       .  A
C818        H829   1.084       .  S
C819        C820   1.423       .  A
C819        C824   1.405       .  A
C820        C821   1.416       .  A
C821        C822   1.397       .  A
C821        H830   1.077       .  S
C822        C823   1.398       .  A
C822        H831   1.083       .  S
C823        C824   1.399       .  A
C824        H832   1.085       .  S
C833        C834   1.400       .  A
C833        C838   1.401       .  A
C834        C835   1.400       .  A
C834        H847   1.080       .  S
C835        C836   1.415       .  A
C835        H848   1.078       .  S
C836        C842   1.433       .  A
C836        C837   1.423       .  A
C837        C839   1.398       .  A
C837        C838   1.403       .  A
C838        H849   1.084       .  S
C839        C840   1.388       .  A
C839        H850   1.084       .  S
C840        C841   1.400       .  A
C840        H851   1.084       .  S
C841        C842   1.420       .  A
C841        C846   1.402       .  A
C842        C843   1.416       .  A
C843        C844   1.402       .  A
C843        H852   1.078       .  S
C844        C845   1.404       .  A
C844        H853   1.082       .  S
C845        C846   1.406       .  A
C846        H854   1.083       .  S
C855        C856   1.400       .  A
C855        C860   1.401       .  A
C856        C857   1.401       .  A
C856        H869   1.077       .  S
C857        C858   1.416       .  A
C857        H870   1.078       .  S
C858        C864   1.432       .  A
C858        C859   1.421       .  A
C859        C861   1.398       .  A
C859        C860   1.400       .  A
C860        H871   1.082       .  S
C861        C862   1.387       .  A
C861        H872   1.084       .  S
C862        C863   1.399       .  A
C862        H873   1.084       .  S
C863        C864   1.421       .  A
C863        C868   1.401       .  A
C864        C865   1.415       .  A
C865        C866   1.401       .  A
C865        H874   1.078       .  S
C866        C867   1.404       .  A
C866        H875   1.082       .  S
C867        C868   1.404       .  A
C868        H876   1.083       .  S
C877        C878   1.397       .  A
C877        C882   1.398       .  A
C878        C879   1.397       .  A
C878        H891   1.083       .  S
C879        C880   1.416       .  A
C879        H892   1.078       .  S
C880        C886   1.430       .  A
C880        C881   1.423       .  A
C881        C883   1.399       .  A
C881        C882   1.405       .  A
C882        H893   1.085       .  S
C883        C884   1.390       .  A
C883        H894   1.084       .  S
C884        C885   1.399       .  A
C884        H895   1.084       .  S
C885        C886   1.423       .  A
C885        C890   1.404       .  A
C886        C887   1.415       .  A
C887        C888   1.397       .  A
C887        H896   1.078       .  S
C888        C889   1.396       .  A
C888        H897   1.078       .  S
C889        C890   1.401       .  A
C890        H898   1.085       .  S
C899        C900   1.404       .  A
C899        C904   1.409       .  A
C900        C901   1.390       .  A
C900        H913   1.082   1_545  S
C901        C902   1.409       .  A
C901        H914   1.079       .  S
C902        C908   1.422       .  A
C902        C903   1.419       .  A
C903        C905   1.402       .  A
C903        C904   1.409       .  A
C904        H915   1.083       .  S
C905        C906   1.396       .  A
C905        H916   1.084       .  S
C906        C907   1.402       .  A
C906        H917   1.084       .  S
C907        C908   1.421       .  A
C907        C912   1.409       .  A
C908        C909   1.411       .  A
C909        C910   1.389       .  A
C909        H918   1.078       .  S
C910        C911   1.400       .  A
C910        H919   1.083       .  S
C911        C912   1.403       .  A
C912        H920   1.084       .  S
C921        C922   1.399       .  A
C921        C926   1.401       .  A
C922        C923   1.397       .  A
C922        H935   1.083       .  S
C923        C924   1.416       .  A
C923        H936   1.078       .  S
C924        C930   1.431       .  A
C924        C925   1.423       .  A
C925        C927   1.399       .  A
C925        C926   1.406       .  A
C926        H937   1.085       .  S
C927        C928   1.390       .  A
C927        H938   1.084       .  S
C928        C929   1.400       .  A
C928        H939   1.084       .  S
C929        C930   1.423       .  A
C929        C934   1.407       .  A
C930        C931   1.415       .  A
C931        C932   1.397       .  A
C931        H940   1.078       .  S
C932        C933   1.401       .  A
C932        H941   1.083       .  S
C933        C934   1.401       .  A
C934        H942   1.085       .  S
C943        C944   1.397       .  A
C943        C948   1.397       .  A
C944        C945   1.396       .  A
C944        H957   1.084       .  S
C945        C946   1.416       .  A
C945        H958   1.077       .  S
C946        C952   1.430       .  A
C946        C947   1.424       .  A
C947        C949   1.399       .  A
C947        C948   1.404       .  A
C948        H959   1.082       .  S
C949        C950   1.389       .  A
C949        H960   1.084       .  S
C950        C951   1.399       .  A
C950        H961   1.084       .  S
C951        C952   1.423       .  A
C951        C956   1.404       .  A
C952        C953   1.416       .  A
C953        C954   1.397       .  A
C953        H962   1.077       .  S
C954        C955   1.399       .  A
C954        H963   1.083       .  S
C955        C956   1.400       .  A
C956        H964   1.085       .  S
C965        C966   1.399       .  A
C965        C970   1.402       .  A
C966        C967   1.396       .  A
C966        H979   1.083       .  S
C967        C968   1.415       .  A
C967        H980   1.077       .  S
C968        C974   1.429       .  A
C968        C969   1.422       .  A
C969        C971   1.400       .  A
C969        C970   1.404       .  A
C970        H981   1.084       .  S
C971        C972   1.389       .  A
C971        H982   1.084       .  S
C972        C973   1.398       .  A
C972        H983   1.084       .  S
C973        C974   1.424       .  A
C973        C978   1.403       .  A
C974        C975   1.416       .  A
C975        C976   1.395       .  A
C975        H984   1.077       .  S
C976        C977   1.396       .  A
C976        H985   1.083       .  S
C977        C978   1.395       .  A
C978        H986   1.085       .  S
