geometry optimzed in LAMMPS
_audit_creation_date              2020-11-30 
_audit_creation_method            'lammps2cif' 
_symmetry_space_group_name_H-M    'P1' 
_symmetry_Int_Tables_number       1 
_symmetry_cell_setting            triclinic 
loop_ 
_symmetry_equiv_pos_as_xyz 
  x,y,z 
_cell_length_a                    41.27664276 
_cell_length_b                    43.51683303400365 
_cell_length_c                    30.464700980438305 
_cell_angle_alpha                 92.11035558141718 
_cell_angle_beta                  86.84251968409063 
_cell_angle_gamma                 112.65958686491757 
loop_ 
_atom_site_label 
_atom_site_type_symbol 
_atom_site_fract_x 
_atom_site_fract_y 
_atom_site_fract_z 
_atom_site_charge 
N1          N  0.41069505  0.33373468  0.37008622    -0.02500
C2          C  0.41950496  0.35201760  0.40818075     0.00100
C3          C  0.39143408  0.35804146  0.42673294    -0.22800
C4          C  0.36437794  0.34398596  0.39989241    -0.23000
C5          C  0.37589705  0.32840642  0.36572742     0.00000
H6          H  0.39129030  0.37305900  0.45555457     0.13800
H7          H  0.33911993  0.34579031  0.40507035     0.13800
N8          N  0.35632711  0.40625448  0.20373347    -0.02500
C9          C  0.39064843  0.42530112  0.19029393     0.00100
C10         C  0.40984187  0.44118286  0.22624797    -0.22800
C11         C  0.38730356  0.43408921  0.26204690    -0.23000
C12         C  0.35476982  0.41430667  0.24733621     0.00000
H13         H  0.43668785  0.45921228  0.22588280     0.13800
H14         H  0.39282611  0.44666435  0.29374813     0.13800
N15         N  0.10999243  0.05022923  0.33052862    -0.02500
C16         C  0.07464973  0.03037039  0.33420440     0.00100
C17         C  0.05694755  0.04142736  0.30536297    -0.22800
C18         C  0.08140909  0.06921159  0.28509188    -0.23000
C19         C  0.11389929  0.07523163  0.30204431     0.00000
H20         H  0.02878532  0.03230453  0.30231924     0.13800
H21         H  0.07553022  0.08477492  0.26249371     0.13800
C22         C  0.27591587  0.25186092  0.23634131     0.03200
C23         C  0.26402981  0.26697585  0.20361817     0.03200
C24         C  0.23112659  0.24749811  0.18570039    -0.17300
C25         C  0.20833221  0.21514079  0.20198330     0.03200
C26         C  0.22033070  0.20135770  0.23682739     0.03200
C27         C  0.25455648  0.21935934  0.25115082    -0.17300
H28         H  0.26339352  0.20948088  0.27818692     0.05300
H29         H  0.22325561  0.25836698  0.15901024     0.05300
N30         N  0.04494943  0.12738880  0.12372421    -0.02500
C31         C  0.03520574  0.10592833  0.08860642     0.00100
C32         C  0.06239020  0.11414594  0.05697185    -0.22800
C33         C  0.08974462  0.14083927  0.07269118    -0.23000
C34         C  0.07852717  0.14865105  0.11337089     0.00000
H35         H  0.06322341  0.10056244  0.02685470     0.13800
H36         H  0.11609404  0.15139767  0.05794857     0.13800
N37         N  0.05896068  0.40430250  0.17726130    -0.02500
C38         C  0.05642684  0.42795759  0.14986596     0.00100
C39         C  0.08309012  0.45858995  0.15762595    -0.22800
C40         C  0.10229670  0.45488719  0.18999102    -0.23000
C41         C  0.08766050  0.42198008  0.20137776     0.00000
H42         H  0.08788522  0.48179306  0.14143675     0.13800
H43         H  0.12494934  0.47422708  0.20368407     0.13800
N44         N  0.41191919  0.04414576  0.34750574    -0.02500
C45         C  0.42813492  0.02195388  0.34858825     0.00100
C46         C  0.44469119  0.01974681  0.30868697    -0.22800
C47         C  0.44214350  0.04335853  0.28291505    -0.23000
C48         C  0.42397055  0.05908838  0.30779876     0.00000
H49         H  0.46134955  0.00597334  0.30134238     0.13800
H50         H  0.45678124  0.05168338  0.25207338     0.13800
C51         C  0.49362539  0.26362666  0.22883315     0.03200
C52         C  0.47147095  0.25272555  0.26792935     0.03200
C53         C  0.46286562  0.21998292  0.28217728    -0.17300
C54         C  0.47142048  0.19654582  0.25718100     0.03200
C55         C  0.49363652  0.20693367  0.21922884     0.03200
C56         C  0.99611383  0.24027604  0.20891954    -0.17300
H57         H  0.00996176  0.24596724  0.17719652     0.05300
H58         H  0.44859616  0.21212689  0.31329064     0.05300
C59         C  0.25842392  0.48255001  0.35638536     0.03200
C60         C  0.24929306  0.45101449  0.33559263     0.03200
C61         C  0.21487855  0.43248037  0.32400643    -0.17300
C62         C  0.19021329  0.44712554  0.32318348     0.03200
C63         C  0.19964245  0.48022493  0.34090335     0.03200
C64         C  0.23274231  0.49645954  0.35970073    -0.17300
H65         H  0.24301186  0.02140464  0.37578381     0.05300
H66         H  0.20897658  0.40808022  0.30879508     0.05300
Zr67       Zr  0.48807029  0.48960179  0.09322669     2.17500
O68         O  0.01080142  0.00770590  0.16675544    -0.50400
O69         O  0.43611065  0.46225574  0.14357412    -0.73600
O70         O  0.00665357  0.04843894  0.10700209    -0.80400
O71         O  0.51275234  0.41081381  0.10189649    -0.82100
O72         O  0.49380244  0.06732979  0.05085948    -0.77700
O73         O  0.02294828  0.45418298  0.12113770    -0.89400
O74         O  0.39025315  0.42245165  0.11091152    -0.75300
O75         O  0.43961461  0.49242303  0.05706558    -0.84800
O76         O  0.45619728  0.43328124  0.07103785    -0.84500
O77         O  0.01483778  0.02082278  0.03120744    -0.71300
O78         O  0.03107331  0.46673583  0.03956634    -0.83400
Zr79       Zr  0.47062525  0.45323497  0.41971964     2.26400
Zr80       Zr  0.47007613  0.02338752  0.99571850     2.06300
Zr81       Zr  0.49513541  0.41539912  0.02541998     2.10000
Zr82       Zr  0.40780160  0.43616164  0.03413800     1.78800
O83         O  0.05095302  0.40889903  0.49745558    -0.92200
O84         O  0.37021125  0.46697033  0.05123651    -0.40000
O85         O  0.44691144  0.41780232  0.48265068    -0.76600
O86         O  0.43071999  0.46718221  0.47065349    -0.95300
O87         O  0.50893264  0.00887653  0.44748869    -0.88600
O88         O  0.51818227  0.44589911  0.45346679    -0.91500
C89         C  0.40604486  0.43716168  0.14523274     1.02300
C90         C  0.03046453  0.42805780  0.11752764     1.15200
C91         C  0.00566441  0.07292375  0.08486031     1.06000
O92         O  0.41803264  0.03330058  0.02171488    -0.93600
O93         O  0.44393110  0.02800115  0.42384263    -0.89400
O94         O  0.44648273  0.98434752  0.38245254    -0.82500
C95         C  0.43914607  0.01039439  0.38812949     1.12600
O96         O  0.10058514  0.03050181  0.03624983    -0.95600
Zr97       Zr  0.05507736  0.50433517  0.47894031     1.88900
O98         O  0.51907044  0.48719499  0.36642619    -0.72300
O99         O  0.98937292  0.07716508  0.46129169    -0.51500
O100        O  0.08787482  0.06051854  0.47412666    -0.96200
O101        O  0.09433925  0.47498826  0.46344122    -0.53400
O102        O  0.07264206  0.01394612  0.40837472    -0.72800
C103        C  0.05477242  0.50945158  0.36638847     0.99600
O104        O  0.43646916  0.42026729  0.35937877    -0.61600
O105        O  0.47222020  0.35728013  0.04724872    -0.56400
O106        O  0.47273830  0.39866981  0.40387298    -0.93100
O107        O  0.45871884  0.36860942  0.46505703    -0.91500
O108        O  0.37418148  0.37656825  0.04077600    -0.91900
O109        O  0.35643819  0.40757070  0.49081138    -0.90600
C110        C  0.45420367  0.37210523  0.42449597     1.18400
H111        H  0.44863002  0.41837400  0.09555860     0.34400
H112        H  0.41048793  0.46717814  0.45621135     0.45200
H113        H  0.03425441  0.44094903  0.43586372     0.38700
H114        H  0.03168808  0.04213716  0.03847746     0.35200
H115        H  0.36405728  0.47231242  0.02230485     0.27000
H116        H  0.97808332  0.09074728  0.47769610     0.32900
H117        H  0.07240390  0.06801355  0.45742908     0.38800
H118        H  0.39219330  0.36671771  0.04018929     0.33300
H119        H  0.49136131  0.35420876  0.06236456     0.32200
H120        H  0.06481102  0.41440516  0.52421414     0.33900
H121        H  0.10545629  0.47526472  0.49149060     0.32800
H122        H  0.36438618  0.41396758  0.46002769     0.36800
H123        H  0.41224165  0.41905669  0.36573841     0.29600
H124        H  0.99591088  0.01920827  0.17975621     0.33800
H125        H  0.08892537  0.02596106  0.06593473     0.36600
H126        H  0.45398488  0.35552279  0.07060300     0.29300
H127        H  0.44498729  0.43425108  0.33299175     0.42100
H128        H  0.42687900  0.05719169  0.03024985     0.32200
H129        H  0.34802771  0.45023404  0.06366592     0.39800
H130        H  0.11354082  0.48985272  0.44409067     0.31700
H131        H  0.01734619  0.08702304  0.96879494     0.31700
H132        H  0.03442926  0.02538610  0.16163843     0.32000
C133        C  0.35673502  0.00387286  0.38351090    -0.11300
C134        C  0.37490403  0.03493157  0.36313299     0.05700
C135        C  0.35374700  0.05255776  0.35136212    -0.06600
C136        C  0.31266241  0.53328209  0.34290294    -0.07300
C137        C  0.29619856  0.50355036  0.36528834    -0.01900
C138        C  0.31981237  0.98870303  0.38576780     0.04900
N139        N  0.30311140  0.95885970  0.41036045     0.67400
H140        H  0.37100458  0.99034840  0.39667522     0.16300
H141        H  0.29677139  0.54315945  0.32529985     0.16000
N142        N  0.36230763  0.58149306  0.31956284     0.75100
O143        O  0.31265721  0.93475734  0.40346820    -0.38300
O144        O  0.28633944  0.96007679  0.44585234    -0.38300
O145        O  0.35284641  0.58298912  0.28122458    -0.39000
O146        O  0.37197125  0.60755140  0.34332983    -0.39000
C147        C  0.42387662  0.10217712  0.25763616    -0.11300
C148        C  0.43234821  0.09444477  0.29853998     0.05700
C149        C  0.45259567  0.12044531  0.32666775    -0.06600
C150        C  0.46398266  0.15355243  0.31322843    -0.07300
C151        C  0.45634866  0.16125372  0.27164156    -0.01900
C152        C  0.43459447  0.13522129  0.24456530     0.04900
N153        N  0.42101046  0.14190975  0.20541157     0.67400
H154        H  0.40799922  0.08227429  0.23616724     0.16300
H155        H  0.48021747  0.17330139  0.33459911     0.16000
N156        N  0.46386609  0.11358023  0.36742122     0.75100
O157        O  0.42220815  0.12575109  0.17050397    -0.38300
O158        O  0.39989749  0.15658933  0.20875734    -0.38300
O159        O  0.49375824  0.11216629  0.36869795    -0.39000
O160        O  0.44793958  0.11642380  0.40292335    -0.39000
C161        C  0.09770113  0.41571202  0.27942744    -0.11300
C162        C  0.10500463  0.41038829  0.23470621     0.05700
C163        C  0.13782445  0.40877513  0.22259625    -0.06600
C164        C  0.16444716  0.41868896  0.25282234    -0.07300
C165        C  0.15893610  0.42957075  0.29567099    -0.01900
C166        C  0.12420960  0.42396219  0.31023443     0.04900
N167        N  0.11541249  0.42445319  0.35617014     0.67400
H168        H  0.07212483  0.41558499  0.28983811     0.16300
H169        H  0.19043695  0.42062367  0.24130278     0.16000
N170        N  0.14590864  0.40074720  0.17838290     0.75100
O171        O  0.10349432  0.44534121  0.37207177    -0.38300
O172        O  0.11605671  0.40159292  0.38002673    -0.38300
O173        O  0.14968906  0.42076586  0.14776406    -0.39000
O174        O  0.15363889  0.37560302  0.17094177    -0.39000
C175        C  0.48310116  0.31447238  0.20613340    -0.11300
C176        C  0.00558150  0.30139969  0.21558731     0.05700
C177        C  0.04096771  0.31458895  0.19835782    -0.06600
C178        C  0.05611459  0.34691283  0.18138539    -0.07300
C179        C  0.03841248  0.36865015  0.18273374    -0.01900
C180        C  0.49504268  0.34836121  0.19498044     0.04900
N181        N  0.46991721  0.36312827  0.19327585     0.67400
H182        H  0.45524362  0.30066107  0.21231188     0.16300
H183        H  0.08313362  0.35591258  0.16917495     0.16000
N184        N  0.06317846  0.29635960  0.19992615     0.75100
O185        O  0.45822814  0.36534630  0.15669806    -0.38300
O186        O  0.46315939  0.37791025  0.22677434    -0.38300
O187        O  0.07459719  0.28768646  0.16432711    -0.39000
O188        O  0.07840824  0.29690384  0.23490066    -0.39000
C189        C  0.03160531  0.14753814  0.19582145    -0.11300
C190        C  0.02251856  0.13880977  0.15202948     0.05700
C191        C  0.50727688  0.15001298  0.12929902    -0.06600
C192        C  0.49623658  0.17298605  0.15236741    -0.07300
C193        C  0.99879564  0.18374456  0.20011474    -0.01900
C194        C  0.02096979  0.17060737  0.21938793     0.04900
N195        N  0.03644526  0.18360641  0.26038100     0.67400
H196        H  0.05006879  0.13905462  0.21012829     0.16300
H197        H  0.47928330  0.18274247  0.13681776     0.16000
N198        N  0.49708437  0.14136387  0.08508146     0.75100
O199        O  0.03035371  0.16456180  0.29267393    -0.38300
O200        O  0.06184887  0.21149374  0.26126766    -0.38300
O201        O  0.46770543  0.11844936  0.07808233    -0.39000
O202        O  0.51329436  0.16096905  0.05452976    -0.39000
C203        C  0.15494870  0.21695213  0.16579038    -0.11300
C204        C  0.17182319  0.19762026  0.18344811     0.05700
C205        C  0.15310697  0.16218430  0.18157922    -0.06600
C206        C  0.11822616  0.14860199  0.16903311    -0.07300
C207        C  0.10474133  0.16741880  0.14571080    -0.01900
C208        C  0.12367662  0.20193595  0.14330883     0.04900
N209        N  0.11371898  0.22139564  0.11424293     0.67400
H210        H  0.16700927  0.24383006  0.16616348     0.16300
H211        H  0.10451135  0.12173281  0.16829940     0.16000
N212        N  0.17035491  0.13930710  0.18125459     0.75100
O213        O  0.09672491  0.23842193  0.12911954    -0.38300
O214        O  0.12674507  0.22575592  0.07540369    -0.38300
O215        O  0.15392553  0.11069927  0.19700962    -0.39000
O216        O  0.19430075  0.14266135  0.15211407    -0.39000
C217        C  0.17981617  0.11150633  0.28314078    -0.11300
C218        C  0.14531633  0.10867205  0.29655213     0.05700
C219        C  0.13921788  0.13868970  0.29830622    -0.06600
C220        C  0.16454738  0.16862648  0.28134726    -0.07300
C221        C  0.19689089  0.17031603  0.26212308    -0.01900
C222        C  0.20534765  0.14176609  0.26582027     0.04900
N223        N  0.23790482  0.14174127  0.24693144     0.67400
H224        H  0.18629534  0.08973895  0.28186119     0.16300
H225        H  0.15811791  0.19053098  0.28129132     0.16000
N226        N  0.10626630  0.13886005  0.31516810     0.75100
O227        O  0.26155595  0.14174269  0.27142620    -0.38300
O228        O  0.24400930  0.14381257  0.20588712    -0.38300
O229        O  0.09363689  0.12659784  0.35220019    -0.39000
O230        O  0.08841792  0.14887182  0.29134768    -0.39000
C231        C  0.14811370  0.52457691  0.29051318    -0.11300
C232        C  0.13655985  0.03671170  0.33409632     0.05700
C233        C  0.14943991  0.03376025  0.37492531    -0.06600
C234        C  0.16915206  0.01364487  0.37736751    -0.07300
C235        C  0.17793628  0.50022146  0.33600701    -0.01900
C236        C  0.17188074  0.50906193  0.29417212     0.04900
N237        N  0.19572761  0.51009814  0.25779216     0.67400
H238        H  0.14134988  0.52913574  0.25820165     0.16300
H239        H  0.17727685  0.00914422  0.40888371     0.16000
N240        N  0.14583450  0.05364078  0.41224002     0.75100
O241        O  0.18759707  0.48764249  0.22838713    -0.38300
O242        O  0.22336864  0.53587278  0.25240458    -0.38300
O243        O  0.15446685  0.04882685  0.44968859    -0.39000
O244        O  0.14034879  0.07979933  0.40646881    -0.39000
C245        C  0.28422648  0.41600927  0.33037501    -0.11300
C246        C  0.27600334  0.44115639  0.31303874     0.05700
C247        C  0.29096774  0.45484918  0.27197401    -0.06600
C248        C  0.31515605  0.44408171  0.24988597    -0.07300
C249        C  0.32467974  0.41991938  0.26818534    -0.01900
C250        C  0.30930692  0.40605785  0.30878298     0.04900
N251        N  0.31991136  0.38292936  0.32935542     0.67400
H252        H  0.27175436  0.40468209  0.36117752     0.16300
H253        H  0.32730781  0.45526115  0.21884896     0.16000
N254        N  0.28125950  0.47908237  0.25190178     0.75100
O255        O  0.29930017  0.35276257  0.33006254    -0.38300
O256        O  0.34343158  0.39379693  0.35711046    -0.38300
O257        O  0.32588501  0.01961825  0.25381681    -0.39000
O258        O  0.25493608  0.46934716  0.22819151    -0.39000
C259        C  0.29490135  0.36337484  0.19822564    -0.11300
C260        C  0.33137417  0.37360938  0.18767150     0.05700
C261        C  0.34265114  0.34805053  0.17268185    -0.06300
C262        C  0.31925785  0.31405108  0.17271183    -0.07300
C263        C  0.28464857  0.30362515  0.19095112    -0.01900
C264        C  0.27206652  0.32925088  0.20109699     0.04900
N265        N  0.23679221  0.32134572  0.21754082     0.67400
H266        H  0.28429547  0.38186913  0.20797365     0.16300
H267        H  0.32918234  0.29542336  0.16138934     0.16000
N268        N  0.37901924  0.35537092  0.16500470     0.75100
O269        O  0.23029822  0.31962730  0.25853300    -0.38300
O270        O  0.21491870  0.32489796  0.19291711    -0.38300
O271        O  0.39767802  0.35948867  0.19774837    -0.39000
O272        O  0.39070407  0.35091507  0.12720342    -0.39000
C273        C  0.36396970  0.30423393  0.28794978    -0.11300
C274        C  0.35158943  0.30815684  0.33104962     0.05700
C275        C  0.31491536  0.29294641  0.34082635    -0.06600
C276        C  0.29196495  0.27833860  0.30764314    -0.07300
C277        C  0.30403466  0.27237954  0.26592078    -0.01900
C278        C  0.34089512  0.28358369  0.25653574     0.04900
N279        N  0.35530331  0.27254542  0.21778395     0.67400
H280        H  0.39182518  0.31548455  0.27958231     0.16300
H281        H  0.26394895  0.26854598  0.31586889     0.16000
N282        N  0.30032072  0.28866778  0.38488460     0.75100
O283        O  0.38716128  0.28759396  0.20567737    -0.38300
O284        O  0.33762863  0.24552177  0.19855770    -0.38300
O285        O  0.27733645  0.30026795  0.39621965    -0.39000
O286        O  0.30266363  0.26588395  0.40733325    -0.39000
C287        C  0.40926111  0.27983917  0.34219135    -0.11300
C288        C  0.42865643  0.31393885  0.34863058     0.05700
C289        C  0.46408224  0.32710758  0.33200754    -0.06600
C290        C  0.47785788  0.30658628  0.30743090    -0.07300
C291        C  0.45656122  0.27378269  0.29570276    -0.01900
C292        C  0.42162564  0.26039356  0.31410663     0.04900
N293        N  0.39743866  0.22754818  0.30329879     0.67400
H294        H  0.38284961  0.26858143  0.35659302     0.16300
H295        H  0.50530061  0.31682284  0.29652910     0.16000
N296        N  0.48679038  0.36092723  0.33906451     0.75100
O297        O  0.38194716  0.22257800  0.26760320    -0.38300
O298        O  0.38541051  0.20623284  0.33320996    -0.38300
O299        O  0.51380271  0.36714940  0.36089759    -0.39000
O300        O  0.48538126  0.38299928  0.31442070    -0.39000
N301        N  0.41352901  0.33878549  0.87702996    -0.02500
C302        C  0.42263501  0.35774402  0.91447806     0.00100
C303        C  0.39488510  0.36476069  0.93194656    -0.22800
C304        C  0.36770362  0.35027691  0.90533274    -0.23000
C305        C  0.37878980  0.33352193  0.87214638     0.00000
H306        H  0.39473891  0.38014396  0.96024822     0.13800
H307        H  0.34260983  0.35232740  0.91061130     0.13800
N308        N  0.36187734  0.40233576  0.70208514    -0.02500
C309        C  0.39668245  0.41914426  0.68976026     0.00100
C310        C  0.41547074  0.43552635  0.72578901    -0.22800
C311        C  0.39187027  0.43134809  0.76024071    -0.23000
C312        C  0.35941654  0.41240219  0.74454495     0.00000
H313        H  0.44265373  0.45276396  0.72567652     0.13800
H314        H  0.39702975  0.44527707  0.79102928     0.13800
N315        N  0.11129742  0.04847994  0.83209894    -0.02500
C316        C  0.07605706  0.02860928  0.83422152     0.00100
C317        C  0.05936153  0.03879375  0.80305853    -0.22800
C318        C  0.08447022  0.06624655  0.78287029    -0.23000
C319        C  0.11616524  0.07273098  0.80226854     0.00000
H320        H  0.03137079  0.02953278  0.79850007     0.13800
H321        H  0.07942798  0.08149380  0.75899912     0.13800
C322        C  0.27902300  0.25036355  0.74529794     0.03200
C323        C  0.26846726  0.26442847  0.71002322     0.03200
C324        C  0.23612939  0.24481145  0.69109827    -0.17300
C325        C  0.21273116  0.21308274  0.70799941     0.03200
C326        C  0.22350853  0.19987823  0.74447158     0.03200
C327        C  0.25697611  0.21831194  0.76083441    -0.17300
H328        H  0.26474152  0.20895684  0.78926644     0.05300
H329        H  0.22909557  0.25501113  0.66300971     0.05300
N330        N  0.05176799  0.12664167  0.62343296    -0.02500
C331        C  0.04223729  0.10463396  0.58896568     0.00100
C332        C  0.07046840  0.11104180  0.55914620    -0.22800
C333        C  0.09811989  0.13723325  0.57542786    -0.23000
C334        C  0.08598199  0.14657774  0.61455224     0.00000
H335        H  0.07156742  0.09673361  0.52990836     0.13800
H336        H  0.12497114  0.14653125  0.56219025     0.13800
N337        N  0.04677875  0.40560530  0.68752805    -0.02500
C338        C  0.03208282  0.42707914  0.67336500     0.00100
C339        C  0.03773973  0.45294640  0.70392527    -0.22800
C340        C  0.05821714  0.44964771  0.73516809    -0.23000
C341        C  0.06431165  0.42147767  0.72410406     0.00000
H342        H  0.03093513  0.47436892  0.70148353     0.13800
H343        H  0.07034764  0.46773058  0.76078676     0.13800
N344        N  0.41097674  0.04626448  0.85268375    -0.02500
C345        C  0.42780719  0.02438006  0.85202593     0.00100
C346        C  0.44391605  0.02320303  0.81147586    -0.22800
C347        C  0.44058519  0.04713885  0.78707598    -0.23000
C348        C  0.42231364  0.06208734  0.81327008     0.00000
H349        H  0.46065108  0.00973055  0.80269067     0.13800
H350        H  0.45448714  0.05597558  0.75595571     0.13800
C351        C  0.48954733  0.26683243  0.73008688     0.03200
C352        C  0.47008832  0.25676037  0.77151237     0.03200
C353        C  0.46184113  0.22396571  0.78588371    -0.17300
C354        C  0.46707030  0.19929995  0.75951557     0.03200
C355        C  0.48652029  0.20872208  0.71934209     0.03200
C356        C  0.00326098  0.24138054  0.70776168    -0.17300
H357        H  0.02070438  0.24925616  0.67888266     0.05300
H358        H  0.45067411  0.21709786  0.81868467     0.05300
C359        C  0.26042814  0.48176873  0.84378321     0.03200
C360        C  0.25117115  0.45181888  0.81860196     0.03200
C361        C  0.21712210  0.43543747  0.80373183    -0.17300
C362        C  0.19238095  0.44997654  0.80878821     0.03200
C363        C  0.20224573  0.48161224  0.83057291     0.03200
C364        C  0.23520851  0.49608409  0.84982553    -0.17300
H365        H  0.24206568  0.01904104  0.88577738     0.05300
H366        H  0.21087176  0.41257396  0.78444502     0.05300
Zr367      Zr  0.49169565  0.48359588  0.59049750     2.17500
O368        O  0.01231362  0.00616802  0.66809565    -0.50400
O369        O  0.44240557  0.45474864  0.64279601    -0.73600
O370        O  0.01058799  0.04761189  0.60755975    -0.80400
O371        O  0.52268741  0.40763601  0.58565784    -0.82100
O372        O  0.49059468  0.06966384  0.54860827    -0.77700
O373        O  0.02886198  0.46382337  0.62005792    -0.89400
O374        O  0.39410831  0.41781063  0.61100733    -0.75300
O375        O  0.44189068  0.48758265  0.55850360    -0.84800
O376        O  0.45818817  0.42797154  0.56685524    -0.84500
O377        O  0.01682086  0.01917523  0.53161092    -0.71300
O378        O  0.03168779  0.47134609  0.54387186    -0.83400
Zr379      Zr  0.47350769  0.45548842  0.92297740     2.26400
Zr380      Zr  0.46886142  0.02492164  0.49413530     2.06300
Zr381      Zr  0.49465681  0.41043373  0.51657223     2.10000
Zr382      Zr  0.40874562  0.43202003  0.53392713     1.78800
O383        O  0.04472109  0.39748789  0.98623757    -0.92200
O384        O  0.36959319  0.46034967  0.55609074    -0.40000
O385        O  0.44856484  0.42194215  0.98735552    -0.76600
O386        O  0.43185355  0.46978305  0.96998481    -0.95300
O387        O  0.50961495  0.00824320  0.94678927    -0.88600
O388        O  0.52024909  0.44946572  0.96111874    -0.91500
C389        C  0.41161309  0.43096146  0.64487776     1.02300
C390        C  0.02305693  0.43316222  0.62754028     1.15200
C391        C  0.01136385  0.07262308  0.58499860     1.06000
O392        O  0.41789758  0.03775012  0.51664739    -0.93600
O393        O  0.44441618  0.02837654  0.92687065    -0.89400
O394        O  0.44699929  0.98586578  0.88292898    -0.82500
C395        C  0.43944792  0.01174124  0.89035664     1.12600
O396        O  0.10291562  0.02782404  0.53326199    -0.95600
Zr397      Zr  0.05509238  0.50073034  0.97591784     1.88900
O398        O  0.52244618  0.48935344  0.87073474    -0.72300
O399        O  0.99289173  0.07749578  0.95909300    -0.51500
O400        O  0.08744976  0.06274141  0.97708866    -0.96200
O401        O  0.09333436  0.47088341  0.95664543    -0.53400
O402        O  0.07235621  0.01490200  0.90953891    -0.72800
C403        C  0.05458435  0.50769672  0.86384601     0.99600
O404        O  0.43981005  0.42163239  0.86285159    -0.61600
O405        O  0.46766357  0.35469005  0.54685762    -0.56400
O406        O  0.47815051  0.40164321  0.91193113    -0.93100
O407        O  0.46020012  0.37266770  0.97339852    -0.91500
O408        O  0.37588227  0.37226852  0.53984911    -0.91900
O409        O  0.35603466  0.41111783  0.99013284    -0.90600
C410        C  0.45747690  0.37579265  0.93214536     1.18400
H411        H  0.45152079  0.41244296  0.59069815     0.34400
H412        H  0.41212496  0.46913391  0.95391165     0.45200
H413        H  0.03326193  0.43787203  0.93075827     0.38700
H414        H  0.03459713  0.04034788  0.53866404     0.35200
H415        H  0.36045874  0.46432527  0.52838876     0.27000
H416        H  0.98155570  0.09191703  0.97315636     0.32900
H417        H  0.07347793  0.07016301  0.95769826     0.38800
H418        H  0.39408600  0.36262904  0.53773725     0.33300
H419        H  0.48738898  0.34750819  0.55039832     0.32200
H420        H  0.03381989  0.37770746  0.96700262     0.33900
H421        H  0.09673346  0.46201958  0.98472232     0.32800
H422        H  0.36392258  0.41833991  0.95960230     0.36800
H423        H  0.41567633  0.42107664  0.86782420     0.29600
H424        H  0.99786479  0.01831047  0.68049999     0.33800
H425        H  0.09204621  0.03412504  0.56005286     0.36600
H426        H  0.45955728  0.35787975  0.57723071     0.29300
H427        H  0.44919707  0.43487925  0.83597756     0.42100
H428        H  0.42008152  0.05690647  0.49846854     0.32200
H429        H  0.34910586  0.44316515  0.57116675     0.39800
H430        H  0.11652469  0.48825251  0.94870807     0.31700
H431        H  0.01455253  0.08776380  0.46789643     0.31700
H432        H  0.03631278  0.02331426  0.66337928     0.32000
C433        C  0.35734853  0.00534394  0.89110402    -0.11300
C434        C  0.37405544  0.03611778  0.86943710     0.05700
C435        C  0.35141427  0.05219424  0.85757114    -0.06600
C436        C  0.31518707  0.53363511  0.83989892    -0.07300
C437        C  0.29790304  0.50136989  0.85581000    -0.01900
C438        C  0.32052115  0.98886995  0.89437617     0.04900
N439        N  0.30538275  0.95953493  0.92027022     0.67400
H440        H  0.37268367  0.99305503  0.90464762     0.16300
H441        H  0.30010695  0.54569683  0.82484691     0.16000
N442        N  0.36564134  0.58569558  0.83402873     0.75100
O443        O  0.31612788  0.93614604  0.91414005    -0.38300
O444        O  0.28875679  0.96086714  0.95584537    -0.38300
O445        O  0.35641588  0.59594640  0.80048792    -0.39000
O446        O  0.37793928  0.60593177  0.86536342    -0.39000
C447        C  0.42051168  0.10434160  0.76259667    -0.11300
C448        C  0.42877967  0.09726652  0.80404212     0.05700
C449        C  0.44804038  0.12393689  0.83193626    -0.06600
C450        C  0.45893969  0.15688278  0.81755796    -0.07300
C451        C  0.45185433  0.16396869  0.77519576    -0.01900
C452        C  0.43087307  0.13713817  0.74842653     0.04900
N453        N  0.41830062  0.14260340  0.70777946     0.67400
H454        H  0.40549664  0.08399493  0.74111245     0.16300
H455        H  0.47487330  0.17696320  0.83871290     0.16000
N456        N  0.45942519  0.11797125  0.87312945     0.75100
O457        O  0.42155114  0.12631643  0.67382639    -0.38300
O458        O  0.39609193  0.15603647  0.70864652    -0.38300
O459        O  0.49086607  0.12097106  0.87615659    -0.39000
O460        O  0.44083145  0.11688578  0.90776705    -0.39000
C461        C  0.09432128  0.41398688  0.78922086    -0.11300
C462        C  0.09449682  0.41702969  0.74335693     0.05700
C463        C  0.12668716  0.42564073  0.71885391    -0.06600
C464        C  0.15777817  0.43170333  0.74050542    -0.07300
C465        C  0.15817776  0.43352874  0.78666393    -0.01900
C466        C  0.12586571  0.42206336  0.81086096     0.04900
N467        N  0.12488912  0.41821976  0.85731421     0.67400
H468        H  0.06985448  0.40751549  0.80853522     0.16300
H469        H  0.18221784  0.43822934  0.72118394     0.16000
N470        N  0.12921847  0.43462455  0.67369703     0.75100
O471        O  0.11903220  0.43900588  0.88309559    -0.38300
O472        O  0.13197142  0.39508470  0.87262163    -0.38300
O473        O  0.13553544  0.46440251  0.66403804    -0.39000
O474        O  0.12558483  0.41312988  0.64344541    -0.39000
C475        C  0.48775459  0.32416765  0.71189609    -0.11300
C476        C  0.00540318  0.30031362  0.71419228     0.05700
C477        C  0.04167733  0.31842474  0.70412407    -0.06600
C478        C  0.05396233  0.35155757  0.68957667    -0.07300
C479        C  0.03165776  0.36900080  0.68675815    -0.01900
C480        C  0.50468672  0.35781838  0.69788908     0.04900
N481        N  0.48583590  0.37930347  0.69966448     0.67400
H482        H  0.46042343  0.31524090  0.72308365     0.16300
H483        H  0.08190617  0.36457115  0.68409714     0.16000
N484        N  0.06716171  0.30490377  0.71286575     0.75100
O485        O  0.46927054  0.38041247  0.66661106    -0.38300
O486        O  0.49382320  0.40308479  0.72729866    -0.38300
O487        O  0.08475487  0.29846061  0.68127187    -0.39000
O488        O  0.07768872  0.30696824  0.75138831    -0.39000
C489        C  0.03538443  0.14554274  0.69440318    -0.11300
C490        C  0.02966005  0.13963644  0.64940819     0.05700
C491        C  0.50349881  0.15584787  0.62586051    -0.06600
C492        C  0.49164513  0.17782388  0.65005159    -0.07300
C493        C  0.00675537  0.18524759  0.69683430    -0.01900
C494        C  0.02532690  0.16901218  0.71782356     0.04900
N495        N  0.03792649  0.17903701  0.76093971     0.67400
H496        H  0.05107883  0.13446949  0.71013891     0.16300
H497        H  0.47685875  0.18967962  0.63393052     0.16000
N498        N  0.49871534  0.15225769  0.57962543     0.75100
O499        O  0.03012171  0.15759812  0.79062873    -0.38300
O500        O  0.06346403  0.20645594  0.76592944    -0.38300
O501        O  0.46998643  0.13204869  0.56544515    -0.39000
O502        O  0.52048930  0.17308082  0.55385026    -0.39000
C503        C  0.16023004  0.21502085  0.66999257    -0.11300
C504        C  0.17680716  0.19566057  0.68824167     0.05700
C505        C  0.15853788  0.16027211  0.68571104    -0.06600
C506        C  0.12398499  0.14655426  0.67212577    -0.07300
C507        C  0.11096631  0.16537445  0.64805838    -0.01900
C508        C  0.12949029  0.20000358  0.64646734     0.04900
N509        N  0.11991199  0.21957140  0.61709317     0.67400
H510        H  0.17229842  0.24191899  0.67072664     0.16300
H511        H  0.11050120  0.11966347  0.67097586     0.16000
N512        N  0.17632355  0.13784128  0.68550333     0.75100
O513        O  0.10011718  0.23422798  0.63066792    -0.38300
O514        O  0.13539890  0.22617943  0.57967161    -0.38300
O515        O  0.15991322  0.10871353  0.69963663    -0.39000
O516        O  0.20149847  0.14250488  0.65776879    -0.39000
C517        C  0.18214209  0.10951828  0.78767852    -0.11300
C518        C  0.14720657  0.10629081  0.79881568     0.05700
C519        C  0.14066037  0.13600832  0.80074453    -0.06600
C520        C  0.16640196  0.16639995  0.78582005    -0.07300
C521        C  0.19951640  0.16863927  0.76865402    -0.01900
C522        C  0.20810710  0.14021372  0.77249773     0.04900
N523        N  0.24144747  0.14086820  0.75565359     0.67400
H524        H  0.18872317  0.08778071  0.78644177     0.16300
H525        H  0.15974355  0.18816164  0.78546432     0.16000
N526        N  0.10688901  0.13533667  0.81538544     0.75100
O527        O  0.26487755  0.14274892  0.78169241    -0.38300
O528        O  0.24855933  0.14217574  0.71479546    -0.38300
O529        O  0.09271998  0.12200439  0.85136656    -0.39000
O530        O  0.08948944  0.14452852  0.78982594    -0.39000
C531        C  0.14886798  0.52589782  0.78641437    -0.11300
C532        C  0.13756342  0.03501518  0.83790663     0.05700
C533        C  0.14986905  0.03333178  0.87960753    -0.06600
C534        C  0.16907631  0.01301702  0.88440006    -0.07300
C535        C  0.18066146  0.50190702  0.82868166    -0.01900
C536        C  0.17471296  0.51278296  0.78803883     0.04900
N537        N  0.20106304  0.52039373  0.75292345     0.67400
H538        H  0.14193398  0.53157773  0.75478446     0.16300
H539        H  0.17657953  0.00923327  0.91664070     0.16000
N540        N  0.14620070  0.05456095  0.91530134     0.75100
O541        O  0.20626026  0.49784585  0.73025074    -0.38300
O542        O  0.22179306  0.55026119  0.74746381    -0.38300
O543        O  0.15590528  0.05196232  0.95306739    -0.39000
O544        O  0.13982104  0.07992609  0.90742927    -0.39000
C545        C  0.28234297  0.41343138  0.81593571    -0.11300
C546        C  0.27801403  0.44084954  0.79885387     0.05700
C547        C  0.29810121  0.45677868  0.76141395    -0.06600
C548        C  0.32387934  0.44630125  0.74326450    -0.07300
C549        C  0.32945008  0.41986543  0.76175053    -0.01900
C550        C  0.30846247  0.40327232  0.79795711     0.04900
N551        N  0.31407564  0.37670155  0.81740080     0.67400
H552        H  0.26602695  0.40050202  0.84387090     0.16300
H553        H  0.33987264  0.45900158  0.71496756     0.16000
N554        N  0.29153061  0.48261206  0.74061974     0.75100
O555        O  0.29301372  0.34720965  0.81050551    -0.38300
O556        O  0.33442446  0.38311764  0.84878169    -0.38300
O557        O  0.31583314  0.01562664  0.76211546    -0.39000
O558        O  0.26735154  0.47490862  0.71372104    -0.39000
C559        C  0.30061161  0.35998814  0.69602134    -0.11300
C560        C  0.33718667  0.36925721  0.68768950     0.05700
C561        C  0.34839575  0.34304222  0.67582582    -0.06300
C562        C  0.32468397  0.30932962  0.67833738    -0.07300
C563        C  0.28984679  0.30020423  0.69519644    -0.01900
C564        C  0.27725727  0.32624077  0.70039081     0.04900
N565        N  0.24108399  0.31919815  0.71154784     0.67400
H566        H  0.29023303  0.37913062  0.70240212     0.16300
H567        H  0.33421075  0.29005168  0.66906769     0.16000
N568        N  0.38457862  0.34977932  0.66633320     0.75100
O569        O  0.23075895  0.31715718  0.75147555    -0.38300
O570        O  0.22215239  0.32345314  0.68311538    -0.38300
O571        O  0.40381783  0.35092725  0.69757647    -0.39000
O572        O  0.39525766  0.34741127  0.62723425    -0.39000
C573        C  0.36661119  0.30547942  0.79627508    -0.11300
C574        C  0.35419660  0.31163465  0.83846828     0.05700
C575        C  0.31744881  0.29657117  0.84825715    -0.06600
C576        C  0.29463932  0.27902880  0.81595614    -0.07300
C577        C  0.30687597  0.27156485  0.77507092    -0.01900
C578        C  0.34379032  0.28287784  0.76615298     0.04900
N579        N  0.35854797  0.26989053  0.72948649     0.67400
H580        H  0.39440626  0.31672176  0.78764890     0.16300
H581        H  0.26660816  0.26925513  0.82403921     0.16000
N582        N  0.30244490  0.29627873  0.89169116     0.75100
O583        O  0.39077970  0.28367831  0.71838626    -0.38300
O584        O  0.34073599  0.24224609  0.71176471    -0.38300
O585        O  0.28041527  0.30969338  0.89899918    -0.39000
O586        O  0.30367219  0.27540241  0.91853367    -0.39000
C587        C  0.41258469  0.28451134  0.85341126    -0.11300
C588        C  0.43143053  0.31881676  0.85645196     0.05700
C589        C  0.46571277  0.33212980  0.83639379    -0.06600
C590        C  0.47861792  0.31123472  0.81112924    -0.07300
C591        C  0.45698268  0.27804969  0.80163362    -0.01900
C592        C  0.42349315  0.26455828  0.82453065     0.04900
N593        N  0.39911635  0.23101096  0.81798674     0.67400
H594        H  0.38713089  0.27355087  0.87050486     0.16300
H595        H  0.50531502  0.32154122  0.79747553     0.16000
N596        N  0.48746618  0.36664894  0.83947423     0.75100
O597        O  0.37957968  0.22415524  0.78565840    -0.38300
O598        O  0.39072428  0.21121631  0.84979518    -0.38300
O599        O  0.51795878  0.37532765  0.85366050    -0.39000
O600        O  0.47981413  0.38731220  0.81876307    -0.39000
N601        N  0.41260491  0.83849594  0.37363230    -0.02500
C602        C  0.42220318  0.85754053  0.41100559     0.00100
C603        C  0.39509010  0.86563411  0.42842055    -0.22800
C604        C  0.36791537  0.85203031  0.40168337    -0.23000
C605        C  0.37816248  0.83448786  0.36874476     0.00000
H606        H  0.39521161  0.88102863  0.45684586     0.13800
H607        H  0.34327454  0.85509634  0.40662503     0.13800
N608        N  0.36125335  0.90584153  0.20166935    -0.02500
C609        C  0.39608566  0.92195151  0.18880088     0.00100
C610        C  0.41559422  0.93772572  0.22460776    -0.22800
C611        C  0.39263184  0.93374003  0.25961135    -0.23000
C612        C  0.35978894  0.91557592  0.24450373     0.00000
H613        H  0.44307836  0.95416908  0.22423971     0.13800
H614        H  0.39855839  0.94715327  0.29071076     0.13800
N615        N  0.10868462  0.55008222  0.32389719    -0.02500
C616        C  0.07363727  0.52968493  0.32662419     0.00100
C617        C  0.05609882  0.53962122  0.29627147    -0.22800
C618        C  0.08046982  0.56758074  0.27622898    -0.23000
C619        C  0.11254172  0.57467785  0.29502191     0.00000
H620        H  0.02801296  0.52988715  0.29231275     0.13800
H621        H  0.07461827  0.58270316  0.25294339     0.13800
C622        C  0.27410451  0.75487988  0.24364319     0.03200
C623        C  0.26399454  0.76935721  0.20830917     0.03200
C624        C  0.23179969  0.74996486  0.18874647    -0.17300
C625        C  0.20816252  0.71794175  0.20473952     0.03200
C626        C  0.21825124  0.70453528  0.24169009     0.03200
C627        C  0.25144884  0.72290904  0.25893409    -0.17300
H628        H  0.25885628  0.71318844  0.28731670     0.05300
H629        H  0.22538692  0.76041152  0.16044894     0.05300
N630        N  0.04941660  0.62790309  0.11604850    -0.02500
C631        C  0.04133041  0.60460432  0.08285970     0.00100
C632        C  0.07018966  0.61102929  0.05409421    -0.22800
C633        C  0.09680056  0.63844680  0.06973087    -0.23000
C634        C  0.08354489  0.64848843  0.10752535     0.00000
H635        H  0.07245032  0.59606454  0.02602938     0.13800
H636        H  0.12387222  0.64807727  0.05728715     0.13800
N637        N  0.05602281  0.90715759  0.18558314    -0.02500
C638        C  0.04999488  0.93184561  0.16427317     0.00100
C639        C  0.07110741  0.96294406  0.18055544    -0.22800
C640        C  0.09058242  0.95834096  0.21181573    -0.23000
C641        C  0.08157261  0.92462725  0.21419208     0.00000
H642        H  0.07309757  0.98704457  0.16966078     0.13800
H643        H  0.11095584  0.97767283  0.22928480     0.13800
N644        N  0.40926962  0.54502767  0.34676154    -0.02500
C645        C  0.42442151  0.52188528  0.34884721     0.00100
C646        C  0.44212614  0.51986392  0.30973418    -0.22800
C647        C  0.44201783  0.54461152  0.28413902    -0.23000
C648        C  0.42384317  0.56081337  0.30798833     0.00000
H649        H  0.45814380  0.50536898  0.30313172     0.13800
H650        H  0.45787690  0.55293961  0.25410131     0.13800
C651        C  0.49083460  0.76693234  0.22954367     0.03200
C652        C  0.46922796  0.75587496  0.26907407     0.03200
C653        C  0.45993149  0.72265936  0.28248125    -0.17300
C654        C  0.46761054  0.69894137  0.25674478     0.03200
C655        C  0.48897237  0.70957213  0.21810695     0.03200
C656        C  0.99796527  0.74105874  0.19967724    -0.17300
H657        H  0.01375287  0.74823531  0.16940344     0.05300
H658        H  0.44629902  0.71483425  0.31392828     0.05300
C659        C  0.26238719  0.98394430  0.35284452     0.03200
C660        C  0.25371987  0.95401717  0.32793192     0.03200
C661        C  0.21936213  0.93592117  0.31601650    -0.17300
C662        C  0.19397635  0.94966203  0.32030684     0.03200
C663        C  0.20299218  0.98162552  0.34125253     0.03200
C664        C  0.23632380  0.99728108  0.35961736    -0.17300
H665        H  0.23988799  0.52160267  0.37278468     0.05300
H666        H  0.21357556  0.91269862  0.29761983     0.05300
Zr667      Zr  0.49334977  0.98369306  0.09154023     2.17500
O668        O  0.01896045  0.50622903  0.15807171    -0.50400
O669        O  0.44265940  0.95589738  0.14199011    -0.73600
O670        O  0.01191698  0.54699299  0.09998042    -0.80400
O671        O  0.52475353  0.90778686  0.08728783    -0.82100
O672        O  0.49034116  0.57197695  0.04502909    -0.77700
O673        O  0.01851889  0.95715884  0.12947946    -0.89400
O674        O  0.39433473  0.91965599  0.10964763    -0.75300
O675        O  0.44465533  0.98824550  0.05806264    -0.84800
O676        O  0.45979564  0.92833100  0.06721917    -0.84500
O677        O  0.01834424  0.51883321  0.02386152    -0.71300
O678        O  0.02866082  0.96934994  0.04918078    -0.83400
Zr679      Zr  0.47484461  0.95483434  0.42201598     2.26400
Zr680      Zr  0.46592855  0.52575962  0.99315202     2.06300
Zr681      Zr  0.49718070  0.91086810  0.01811963     2.10000
Zr682      Zr  0.41132826  0.93303192  0.03262509     1.78800
O683        O  0.04408000  0.89665316  0.49722866    -0.92200
O684        O  0.37257977  0.96282531  0.04929326    -0.40000
O685        O  0.44856551  0.92042996  0.48535157    -0.76600
O686        O  0.43385888  0.96947246  0.47008700    -0.95300
O687        O  0.50484896  0.50717832  0.44564574    -0.88600
O688        O  0.52106385  0.94754332  0.45944848    -0.91500
C689        C  0.41147720  0.93281984  0.14377459     1.02300
C690        C  0.02711249  0.93171578  0.12780075     1.15200
C691        C  0.01113689  0.57207251  0.07882743     1.06000
O692        O  0.41498304  0.53842455  0.01635001    -0.93600
O693        O  0.44163474  0.52733973  0.42432725    -0.89400
O694        O  0.44011848  0.48232160  0.38285235    -0.82500
C695        C  0.43471426  0.50941798  0.38874777     1.12600
O696        O  0.10489398  0.52343869  0.02317352    -0.95600
Zr697      Zr  0.05442028  0.00144185  0.48489582     1.88900
O698        O  0.52425964  0.98809453  0.36962977    -0.72300
O699        O  0.00064703  0.57873672  0.45130481    -0.51500
O700        O  0.08921791  0.56343382  0.46929274    -0.96200
O701        O  0.09293655  0.97101225  0.47223620    -0.53400
O702        O  0.07160648  0.51600834  0.40177212    -0.72800
C703        C  0.05570447  0.00879343  0.37320990     0.99600
O704        O  0.44138776  0.92203225  0.36097629    -0.61600
O705        O  0.46596075  0.85583371  0.04926347    -0.56400
O706        O  0.47827749  0.90063615  0.41009164    -0.93100
O707        O  0.45976510  0.86981913  0.46977098    -0.91500
O708        O  0.37775650  0.87337941  0.03851581    -0.91900
O709        O  0.35930121  0.91481077  0.48609057    -0.90600
C710        C  0.45705262  0.87439035  0.42903248     1.18400
H711        H  0.45232438  0.91289069  0.09117127     0.34400
H712        H  0.41403289  0.96909435  0.45438384     0.45200
H713        H  0.03385155  0.93826811  0.44033951     0.38700
H714        H  0.03589222  0.54020553  0.03136334     0.35200
H715        H  0.34861040  0.94531321  0.05165169     0.27000
H716        H  0.98918593  0.59409081  0.46160933     0.32900
H717        H  0.07559002  0.57074401  0.44924377     0.38800
H718        H  0.39572500  0.86345635  0.03672387     0.33300
H719        H  0.48428868  0.84685774  0.05315548     0.32200
H720        H  0.03284935  0.87250130  0.49054581     0.33900
H721        H  0.09844155  0.96649229  0.50194977     0.32800
H722        H  0.33828477  0.91161706  0.50556889     0.36800
H723        H  0.41738050  0.92188048  0.36558006     0.29600
H724        H  0.00493405  0.51811644  0.17244200     0.33800
H725        H  0.10017969  0.50669943  0.04634264     0.36600
H726        H  0.45835097  0.85989778  0.07952218     0.29300
H727        H  0.45131857  0.93545515  0.33436718     0.42100
H728        H  0.42366015  0.56304185  0.01616298     0.32200
H729        H  0.37741728  0.97138948  0.07980788     0.39800
H730        H  0.11531271  0.98734949  0.45983623     0.31700
H731        H  0.98184346  0.58832098  0.95551231     0.31700
H732        H  0.04246471  0.52364233  0.15125001     0.32000
C733        C  0.35414085  0.50863723  0.38763448    -0.11300
C734        C  0.37166690  0.53625126  0.36004418     0.05700
C735        C  0.34939247  0.55007912  0.34064021    -0.06600
C736        C  0.31691718  0.03621998  0.35092212    -0.07300
C737        C  0.29972418  0.00347745  0.36514803    -0.01900
C738        C  0.31712786  0.49273651  0.39090439     0.04900
N739        N  0.30117783  0.46661021  0.42181955     0.67400
H740        H  0.36907153  0.49846656  0.40623146     0.16300
H741        H  0.30169515  0.04901916  0.33796539     0.16000
N742        N  0.36827332  0.08732052  0.34216561     0.75100
O743        O  0.31162465  0.44294853  0.42269689    -0.38300
O744        O  0.28326050  0.47136473  0.45433579    -0.38300
O745        O  0.35841033  0.09761727  0.30917643    -0.39000
O746        O  0.38183295  0.10769497  0.37290670    -0.39000
C747        C  0.42675463  0.60376231  0.25511181    -0.11300
C748        C  0.43227009  0.59628292  0.29773481     0.05700
C749        C  0.44821950  0.62268066  0.32760150    -0.06600
C750        C  0.45852338  0.65582483  0.31421261    -0.07300
C751        C  0.45316081  0.66333773  0.27127305    -0.01900
C752        C  0.43502343  0.63663595  0.24252857     0.04900
N753        N  0.42186540  0.64217315  0.20232501     0.67400
H754        H  0.41386388  0.58358618  0.23223516     0.16300
H755        H  0.47211448  0.67580383  0.33696656     0.16000
N756        N  0.45589462  0.61632009  0.37067360     0.75100
O757        O  0.42553056  0.62668864  0.16776979    -0.38300
O758        O  0.39874648  0.65456127  0.20417135    -0.38300
O759        O  0.48614640  0.61738716  0.37773186    -0.39000
O760        O  0.43518009  0.61617051  0.40277939    -0.39000
C761        C  0.09884022  0.91228530  0.28549231    -0.11300
C762        C  0.10418934  0.91317880  0.23938683     0.05700
C763        C  0.13836320  0.91963303  0.22109665    -0.06600
C764        C  0.16650817  0.92829821  0.24884516    -0.07300
C765        C  0.16193620  0.93283736  0.29432608    -0.01900
C766        C  0.12754467  0.92190788  0.31304494     0.04900
N767        N  0.12159854  0.92021766  0.35968906     0.67400
H768        H  0.07279527  0.90740841  0.29998465     0.16300
H769        H  0.19281061  0.93531316  0.23406733     0.16000
N770        N  0.14610226  0.92532652  0.17485169     0.75100
O771        O  0.11071997  0.94038131  0.38008667    -0.38300
O772        O  0.12648409  0.89792287  0.38047894    -0.38300
O773        O  0.16383084  0.95434533  0.16136286    -0.39000
O774        O  0.13702316  0.90135368  0.14757193    -0.39000
C775        C  0.48922962  0.82390872  0.21043762    -0.11300
C776        C  0.00528842  0.80150605  0.20975031     0.05700
C777        C  0.04159669  0.81685139  0.19755959    -0.06600
C778        C  0.05662437  0.85048843  0.18560649    -0.07300
C779        C  0.03732306  0.87092160  0.18635154    -0.01900
C780        C  0.50644128  0.85774619  0.19739835     0.04900
N781        N  0.48701655  0.87867446  0.19766443     0.67400
H782        H  0.46130464  0.81433428  0.21877297     0.16300
H783        H  0.08445703  0.86116003  0.17843120     0.16000
N784        N  0.06461988  0.79952199  0.20032455     0.75100
O785        O  0.46787682  0.87672757  0.16601063    -0.38300
O786        O  0.49432112  0.90318714  0.22409514    -0.38300
O787        O  0.07909126  0.79308706  0.16557691    -0.39000
O788        O  0.07672528  0.79797075  0.23694430    -0.39000
C789        C  0.03220113  0.64657530  0.18680478    -0.11300
C790        C  0.02612967  0.63967704  0.14203502     0.05700
C791        C  0.50736100  0.65828685  0.12438819    -0.06600
C792        C  0.49527231  0.67992471  0.14872599    -0.07300
C793        C  0.00124705  0.68449267  0.18893093    -0.01900
C794        C  0.02119025  0.66960836  0.20983879     0.04900
N795        N  0.03417956  0.68067579  0.25252473     0.67400
H796        H  0.04889392  0.63669480  0.20262939     0.16300
H797        H  0.48028495  0.69165720  0.13276301     0.16000
N798        N  0.50262119  0.65500751  0.07813818     0.75100
O799        O  0.02710602  0.65990780  0.28294737    -0.38300
O800        O  0.05908700  0.70863909  0.25666684    -0.38300
O801        O  0.47426498  0.63423460  0.06375751    -0.39000
O802        O  0.52356686  0.67683591  0.05281702    -0.39000
C803        C  0.15680772  0.71876095  0.16229299    -0.11300
C804        C  0.17295602  0.70006529  0.18312994     0.05700
C805        C  0.15508256  0.66462112  0.18106565    -0.06600
C806        C  0.12058111  0.65042851  0.16727462    -0.07300
C807        C  0.10794622  0.66839889  0.14107344    -0.01900
C808        C  0.12684049  0.70289960  0.13750373     0.04900
N809        N  0.11895246  0.72114155  0.10454553     0.67400
H810        H  0.16879789  0.74563142  0.16168878     0.16300
H811        H  0.10715264  0.62353109  0.16729631     0.16000
N812        N  0.17343567  0.64264267  0.18109914     0.75100
O813        O  0.10347337  0.74044371  0.11519087    -0.38300
O814        O  0.13268115  0.72221897  0.06626954    -0.38300
O815        O  0.15722879  0.61313221  0.19399251    -0.39000
O816        O  0.19981902  0.64850116  0.15500328    -0.39000
C817        C  0.17814747  0.61337389  0.28299017    -0.11300
C818        C  0.14269101  0.60893768  0.29250853     0.05700
C819        C  0.13506314  0.63810794  0.29436765    -0.06600
C820        C  0.16039628  0.66911124  0.28055305    -0.07300
C821        C  0.19424172  0.67258695  0.26473419    -0.01900
C822        C  0.20373227  0.64468344  0.26897013     0.04900
N823        N  0.23794535  0.64658359  0.25404276     0.67400
H824        H  0.18548795  0.59204765  0.28212835     0.16300
H825        H  0.15290842  0.69037646  0.28003003     0.16000
N826        N  0.10070761  0.63632869  0.30790533     0.75100
O827        O  0.25897635  0.64440965  0.28110818    -0.38300
O828        O  0.24787330  0.65195944  0.21415372    -0.38300
O829        O  0.08643297  0.62320977  0.34395461    -0.39000
O830        O  0.08298812  0.64407857  0.28120452    -0.39000
C831        C  0.15019701  0.02634421  0.29570372    -0.11300
C832        C  0.13540175  0.53687805  0.32812891     0.05700
C833        C  0.14862340  0.53535203  0.36919759    -0.06600
C834        C  0.16768690  0.51488832  0.37330603    -0.07300
C835        C  0.18069100  0.00131456  0.33886108    -0.01900
C836        C  0.17507388  0.01205050  0.29803238     0.04900
N837        N  0.20069603  0.01712673  0.26254870     0.67400
H838        H  0.14389968  0.03229144  0.26386668     0.16300
H839        H  0.17609873  0.51162249  0.40524188     0.16000
N840        N  0.14538439  0.55643353  0.40528385     0.75100
O841        O  0.19546974  0.99654555  0.23102530    -0.38300
O842        O  0.22618530  0.04488907  0.25957164    -0.38300
O843        O  0.15432164  0.55284646  0.44310655    -0.39000
O844        O  0.13954510  0.58218878  0.39800452    -0.39000
C845        C  0.28181393  0.91358327  0.31612096    -0.11300
C846        C  0.28056598  0.94407321  0.30567980     0.05700
C847        C  0.30293315  0.96338945  0.27169184    -0.06600
C848        C  0.32801381  0.95293443  0.25122519    -0.07300
C849        C  0.33053114  0.92330992  0.26359349    -0.01900
C850        C  0.30720188  0.90348435  0.29588515     0.04900
N851        N  0.31047683  0.87420420  0.31032134     0.67400
H852        H  0.26390406  0.89828085  0.34132518     0.16300
H853        H  0.34575119  0.96799694  0.22568784     0.16000
N854        N  0.29936308  0.99257956  0.25625261     0.75100
O855        O  0.28519239  0.84652183  0.30654048    -0.38300
O856        O  0.33446316  0.87720825  0.33593635    -0.38300
O857        O  0.30342155  0.50859155  0.24840803    -0.39000
O858        O  0.27228533  0.98960561  0.23630417    -0.39000
C859        C  0.29911651  0.86528446  0.19550310    -0.11300
C860        C  0.33550369  0.87338756  0.18696329     0.05700
C861        C  0.34543647  0.84653864  0.17414495    -0.06300
C862        C  0.32062191  0.81321844  0.17580198    -0.07300
C863        C  0.28609254  0.80500743  0.19335538    -0.01900
C864        C  0.27469239  0.83182719  0.19915526     0.04900
N865        N  0.23855366  0.82584016  0.20899780     0.67400
H866        H  0.28973621  0.88508078  0.20233062     0.16300
H867        H  0.32906113  0.79344719  0.16538376     0.16000
N868        N  0.38137532  0.85210762  0.16453101     0.75100
O869        O  0.22818893  0.82754079  0.24839695    -0.38300
O870        O  0.22007533  0.82809470  0.17856893    -0.38300
O871        O  0.40126355  0.85563607  0.19589964    -0.39000
O872        O  0.39129470  0.84691028  0.12605607    -0.39000
C873        C  0.36382252  0.80741937  0.29251434    -0.11300
C874        C  0.35267842  0.81311564  0.33554674     0.05700
C875        C  0.31614809  0.79841390  0.34677421    -0.06600
C876        C  0.29222080  0.78184673  0.31505452    -0.07300
C877        C  0.30306961  0.77514982  0.27291407    -0.01900
C878        C  0.33983257  0.78580929  0.26256690     0.04900
N879        N  0.35332357  0.77286890  0.22470293     0.67400
H880        H  0.39152825  0.81814074  0.28312680     0.16300
H881        H  0.26441157  0.77235350  0.32442531     0.16000
N882        N  0.30256988  0.79755318  0.39106850     0.75100
O883        O  0.38543662  0.78606460  0.21270475    -0.38300
O884        O  0.33445902  0.74579045  0.20653093    -0.38300
O885        O  0.28114053  0.81130197  0.40080125    -0.39000
O886        O  0.30455724  0.77622674  0.41659221    -0.39000
C887        C  0.40973842  0.78417425  0.34636788    -0.11300
C888        C  0.42989239  0.81808740  0.35241884     0.05700
C889        C  0.46533011  0.83042224  0.33555814    -0.06600
C890        C  0.47796612  0.80940224  0.31032525    -0.07300
C891        C  0.45563093  0.77711071  0.29821516    -0.01900
C892        C  0.42100224  0.76431580  0.31769863     0.04900
N893        N  0.39608090  0.73159900  0.30783624     0.67400
H894        H  0.38350261  0.77346795  0.36143489     0.16300
H895        H  0.50536229  0.81889030  0.29921909     0.16000
N896        N  0.48923009  0.86379357  0.34287651     0.75100
O897        O  0.37950284  0.72661668  0.27300461    -0.38300
O898        O  0.38459352  0.71057767  0.33815802    -0.38300
O899        O  0.51649511  0.86867916  0.36365172    -0.39000
O900        O  0.48883022  0.88636929  0.31837778    -0.39000
N901        N  0.41500806  0.83604501  0.87133019    -0.02500
C902        C  0.42504713  0.85561185  0.90816927     0.00100
C903        C  0.39763668  0.86238621  0.92723742    -0.22800
C904        C  0.36974938  0.84761965  0.90200373    -0.23000
C905        C  0.38006865  0.83089530  0.86811162     0.00000
H906        H  0.39801856  0.87757973  0.95591113     0.13800
H907        H  0.34470098  0.84955294  0.90853434     0.13800
N908        N  0.35858157  0.90638402  0.70333376    -0.02500
C909        C  0.39311019  0.92413937  0.68999866     0.00100
C910        C  0.41238941  0.94054590  0.72567547    -0.22800
C911        C  0.38962734  0.93511405  0.76110795    -0.23000
C912        C  0.35702231  0.91557001  0.74645144     0.00000
H913        H  0.43948365  0.95801645  0.72512716     0.13800
H914        H  0.39526198  0.94831063  0.79239399     0.13800
N915        N  0.10845732  0.54897750  0.82228574    -0.02500
C916        C  0.07351930  0.52824923  0.82439956     0.00100
C917        C  0.05604825  0.53816844  0.79395435    -0.22800
C918        C  0.08032540  0.56648933  0.77453469    -0.23000
C919        C  0.11224439  0.57378307  0.79383517     0.00000
H920        H  0.02803534  0.52806948  0.78942761     0.13800
H921        H  0.07452299  0.58148147  0.75102472     0.13800
C922        C  0.27626983  0.75272386  0.74236547     0.03200
C923        C  0.26593551  0.76767570  0.70772301     0.03200
C924        C  0.23377701  0.74841844  0.68812894    -0.17300
C925        C  0.21027317  0.71635612  0.70385065     0.03200
C926        C  0.22019197  0.70265202  0.74049902     0.03200
C927        C  0.25360110  0.72062233  0.75737454    -0.17300
H928        H  0.26104986  0.71064915  0.78548970     0.05300
H929        H  0.22699909  0.75906554  0.66026431     0.05300
N930        N  0.05127838  0.63084404  0.61461938    -0.02500
C931        C  0.04142347  0.60879750  0.58028184     0.00100
C932        C  0.06941150  0.61506542  0.55011618    -0.22800
C933        C  0.09726637  0.64117833  0.56614201    -0.23000
C934        C  0.08550679  0.65059068  0.60549058     0.00000
H935        H  0.07035978  0.60052927  0.52106175     0.13800
H936        H  0.12407408  0.65016772  0.55276423     0.13800
N937        N  0.06091119  0.90894929  0.68569303    -0.02500
C938        C  0.05645897  0.93263140  0.66028666     0.00100
C939        C  0.08045639  0.96408606  0.67122430    -0.22800
C940        C  0.10007137  0.96071582  0.70335036    -0.23000
C941        C  0.08823078  0.92730482  0.71160426     0.00000
H942        H  0.08359374  0.98751221  0.65681542     0.13800
H943        H  0.12174256  0.98049718  0.71825270     0.13800
N944        N  0.41048993  0.54403081  0.84406815    -0.02500
C945        C  0.42671377  0.52184759  0.84635836     0.00100
C946        C  0.44429598  0.51986203  0.80716215    -0.22800
C947        C  0.44259232  0.54367324  0.78094535    -0.23000
C948        C  0.42375265  0.55930775  0.80467287     0.00000
H949        H  0.46103592  0.50606679  0.80071277     0.13800
H950        H  0.45793440  0.55201579  0.75055947     0.13800
C951        C  0.49207265  0.76509064  0.72385124     0.03200
C952        C  0.47120380  0.75411438  0.76410931     0.03200
C953        C  0.46224268  0.72097925  0.77755387    -0.17300
C954        C  0.46928256  0.69707947  0.75154084     0.03200
C955        C  0.49046220  0.70747691  0.71274594     0.03200
C956        C  0.00159502  0.74355910  0.70262580    -0.17300
H957        H  0.01690242  0.75091542  0.67203282     0.05300
H958        H  0.44930450  0.71328847  0.80939913     0.05300
C959        C  0.26138651  0.98141051  0.86366854     0.03200
C960        C  0.25245067  0.95091355  0.83995989     0.03200
C961        C  0.21786077  0.93257159  0.82877029    -0.17300
C962        C  0.19284357  0.94690330  0.83120270     0.03200
C963        C  0.20210118  0.97907631  0.85164971     0.03200
C964        C  0.23526012  0.99464971  0.87034343    -0.17300
H965        H  0.24238772  0.52015156  0.86629305     0.05300
H966        H  0.21196883  0.90904791  0.81109639     0.05300
Zr967      Zr  0.49072612  0.98664606  0.59282665     2.17500
O968        O  0.00916686  0.51176006  0.66351918    -0.50400
O969        O  0.43938831  0.95870957  0.64294790    -0.73600
O970        O  0.01240685  0.55176351  0.59948201    -0.80400
O971        O  0.52155297  0.90966986  0.59151343    -0.82100
O972        O  0.49564110  0.56808863  0.54674815    -0.77700
O973        O  0.02200412  0.95662210  0.62936691    -0.89400
O974        O  0.39169205  0.92135231  0.61055953    -0.75300
O975        O  0.44269602  0.99105892  0.55745027    -0.84800
O976        O  0.45720773  0.93096621  0.56934547    -0.84500
O977        O  0.01769425  0.52271771  0.52522936    -0.71300
O978        O  0.02993250  0.96785935  0.54867038    -0.83400
Zr979      Zr  0.47547309  0.95470200  0.91986496     2.26400
Zr980      Zr  0.46567020  0.52244932  0.49535231     2.06300
Zr981      Zr  0.49445555  0.91217125  0.52204695     2.10000
Zr982      Zr  0.40918374  0.93556422  0.53372840     1.78800
O983        O  0.04608425  0.90104172  0.99790726    -0.92200
O984        O  0.37471636  0.96885041  0.55454306    -0.40000
O985        O  0.45076640  0.91939601  0.98266566    -0.76600
O986        O  0.43512613  0.96842203  0.97006558    -0.95300
O987        O  0.50671027  0.50985218  0.94777339    -0.88600
O988        O  0.52208974  0.94672739  0.95543804    -0.91500
C989        C  0.40844944  0.93506519  0.64478222     1.02300
C990        C  0.03104249  0.93143415  0.62641777     1.15200
C991        C  0.01112974  0.57631658  0.57770668     1.06000
O992        O  0.41312946  0.52812305  0.52817248    -0.93600
O993        O  0.44117795  0.52807407  0.92234205    -0.89400
O994        O  0.44499182  0.48451672  0.88189790    -0.82500
C995        C  0.43713220  0.51038608  0.88673697     1.12600
O996        O  0.10425286  0.53071721  0.52630581    -0.95600
Zr997      Zr  0.05355816  0.00347415  0.98603147     1.88900
O998        O  0.52439169  0.98888766  0.86739997    -0.72300
O999        O  0.00031527  0.57957627  0.95971958    -0.51500
O1000       O  0.09027891  0.55995010  0.97002632    -0.96200
O1001       O  0.09360540  0.97449851  0.97549167    -0.53400
O1002       O  0.07138985  0.51409930  0.89923708    -0.72800
C1003       C  0.05625221  0.00842959  0.87361701     0.99600
O1004       O  0.44004964  0.92214758  0.86013614    -0.61600
O1005       O  0.46497978  0.85995599  0.56074338    -0.56400
O1006       O  0.47964947  0.90081017  0.90546269    -0.93100
O1007       O  0.46437910  0.86889427  0.96471064    -0.91500
O1008       O  0.37211836  0.87662857  0.53968356    -0.91900
O1009       O  0.35997126  0.90823870  0.98790527    -0.90600
C1010       C  0.46011501  0.87387952  0.92462514     1.18400
H1011       H  0.44960937  0.91570623  0.59350934     0.34400
H1012       H  0.41520355  0.96857599  0.95508254     0.45200
H1013       H  0.03490838  0.94058762  0.94120322     0.38700
H1014       H  0.03463017  0.54322901  0.53122011     0.35200
H1015       H  0.36672813  0.97372586  0.52652720     0.27000
H1016       H  0.00829524  0.57550540  0.92961690     0.32900
H1017       H  0.07629502  0.56857648  0.95232198     0.38800
H1018       H  0.38873627  0.86518346  0.53742834     0.33300
H1019       H  0.43996449  0.85238331  0.55361099     0.32200
H1020       H  0.03660720  0.87649088  0.99436894     0.33900
H1021       H  0.09543193  0.96696427  0.00518456     0.32800
H1022       H  0.36791856  0.91651226  0.95778571     0.36800
H1023       H  0.41618515  0.92197287  0.86650621     0.29600
H1024       H  0.99441713  0.52438772  0.67285457     0.33800
H1025       H  0.09361586  0.53646736  0.55368877     0.36600
H1026       H  0.47343958  0.84391146  0.54516044     0.29300
H1027       H  0.44898198  0.93583043  0.83354632     0.42100
H1028       H  0.39848323  0.52674919  0.50292756     0.32200
H1029       H  0.35311650  0.95322731  0.56967305     0.39800
H1030       H  0.11696615  0.99197866  0.96869122     0.31700
H1031       H  0.02413829  0.58808299  0.46392310     0.31700
H1032       H  0.03353545  0.52853093  0.66060935     0.32000
C1033       C  0.35456649  0.50365512  0.87899636    -0.11300
C1034       C  0.37293126  0.53428214  0.85755531     0.05700
C1035       C  0.35172222  0.55084826  0.84268524    -0.06600
C1036       C  0.31474454  0.03457150  0.85830957    -0.07300
C1037       C  0.29901483  0.00204636  0.87377562    -0.01900
C1038       C  0.31759373  0.48791644  0.87970088     0.04900
N1039       N  0.30043842  0.45965658  0.90709092     0.67400
H1040       H  0.36878909  0.49121822  0.89481807     0.16300
H1041       H  0.29844918  0.04627964  0.84542027     0.16000
N1042       N  0.36413578  0.08674040  0.84742188     0.75100
O1043       O  0.31131748  0.43621013  0.90601115    -0.38300
O1044       O  0.28157868  0.46241902  0.93983893    -0.38300
O1045       O  0.35362661  0.09552254  0.81370183    -0.39000
O1046       O  0.37578242  0.10785015  0.87803290    -0.39000
C1047       C  0.42404386  0.60186331  0.75261385    -0.11300
C1048       C  0.43150305  0.59461303  0.79440475     0.05700
C1049       C  0.45026759  0.62116131  0.82272421    -0.06600
C1050       C  0.46098545  0.65419894  0.80885697    -0.07300
C1051       C  0.45446228  0.66153613  0.76639542    -0.01900
C1052       C  0.43428854  0.63480951  0.73887427     0.04900
N1053       N  0.42185046  0.64054595  0.69828236     0.67400
H1054       H  0.40936928  0.58160773  0.73080013     0.16300
H1055       H  0.47627264  0.67421217  0.83056532     0.16000
N1056       N  0.46114268  0.61496096  0.86408254     0.75100
O1057       O  0.42547768  0.62468843  0.66407894    -0.38300
O1058       O  0.39929797  0.65358808  0.69935225    -0.38300
O1059       O  0.48974574  0.61095879  0.86566552    -0.39000
O1060       O  0.44640266  0.62034183  0.89924060    -0.39000
C1061       C  0.10026797  0.91714509  0.78750843    -0.11300
C1062       C  0.10806585  0.91604186  0.74199534     0.05700
C1063       C  0.14215290  0.91872335  0.72764468    -0.06600
C1064       C  0.16815244  0.92524599  0.75821703    -0.07300
C1065       C  0.16172689  0.93104466  0.80297963    -0.01900
C1066       C  0.12678236  0.92418574  0.81813559     0.04900
N1067       N  0.11813153  0.92451929  0.86423057     0.67400
H1068       H  0.07427372  0.91531155  0.79896239     0.16300
H1069       H  0.19472279  0.92987336  0.74588272     0.16000
N1070       N  0.15268467  0.92208903  0.68182481     0.75100
O1071       O  0.10185513  0.94213785  0.87950025    -0.38300
O1072       O  0.12420956  0.90503168  0.88921372    -0.38300
O1073       O  0.17026005  0.95056129  0.66648936    -0.39000
O1074       O  0.14880192  0.89663855  0.65815508    -0.39000
C1075       C  0.48790574  0.82163198  0.70808326    -0.11300
C1076       C  0.00967732  0.80387715  0.71372203     0.05700
C1077       C  0.04608386  0.81909377  0.70208320    -0.06600
C1078       C  0.06121953  0.85250034  0.68928778    -0.07300
C1079       C  0.04196412  0.87287623  0.68884497    -0.01900
C1080       C  0.50360403  0.85589234  0.69668022     0.04900
N1081       N  0.48300831  0.87578037  0.69935137     0.67400
H1082       H  0.46035323  0.81127111  0.71838432     0.16300
H1083       H  0.08902867  0.86309451  0.68166483     0.16000
N1084       N  0.06898912  0.80175642  0.70574086     0.75100
O1085       O  0.46648703  0.87685698  0.66624791    -0.38300
O1086       O  0.48871235  0.89827327  0.72865819    -0.38300
O1087       O  0.08210929  0.79345123  0.67118240    -0.39000
O1088       O  0.08310724  0.80295724  0.74179678    -0.39000
C1089       C  0.03566512  0.64969826  0.68609427    -0.11300
C1090       C  0.02922798  0.64355823  0.64131277     0.05700
C1091       C  0.50897028  0.65270705  0.62284179    -0.06600
C1092       C  0.49675998  0.67522350  0.64520488    -0.07300
C1093       C  0.00446091  0.68727120  0.69031775    -0.01900
C1094       C  0.02496089  0.67250275  0.71007235     0.04900
N1095       N  0.03929565  0.68406109  0.75202521     0.67400
H1096       H  0.05247526  0.63952259  0.70102863     0.16300
H1097       H  0.48085407  0.68545256  0.62828551     0.16000
N1098       N  0.50188406  0.64553521  0.57746377     0.75100
O1099       O  0.03228134  0.66400079  0.78328068    -0.38300
O1100       O  0.06449236  0.71196333  0.75494740    -0.38300
O1101       O  0.47222179  0.62466816  0.56694599    -0.39000
O1102       O  0.52216441  0.66442299  0.54858902    -0.39000
C1103       C  0.15825386  0.71816681  0.66481597    -0.11300
C1104       C  0.17520030  0.69884645  0.68231849     0.05700
C1105       C  0.15821079  0.66345594  0.67737741    -0.06600
C1106       C  0.12443907  0.64933389  0.66139381    -0.07300
C1107       C  0.11083318  0.66853940  0.63900063    -0.01900
C1108       C  0.12822392  0.70331448  0.63996458     0.04900
N1109       N  0.11824584  0.72343262  0.61193565     0.67400
H1110       H  0.16958083  0.74505587  0.66733022     0.16300
H1111       H  0.11185681  0.62243596  0.65831887     0.16000
N1112       N  0.17661042  0.64162879  0.67913098     0.75100
O1113       O  0.10179924  0.74068535  0.62785132    -0.38300
O1114       O  0.13064970  0.72794239  0.57282069    -0.38300
O1115       O  0.16014721  0.61223855  0.69233513    -0.39000
O1116       O  0.20368424  0.64739848  0.65431041    -0.39000
C1117       C  0.17835572  0.61191978  0.78309628    -0.11300
C1118       C  0.14279643  0.60781601  0.79098609     0.05700
C1119       C  0.13562786  0.63716996  0.79165918    -0.06600
C1120       C  0.16151775  0.66792410  0.77803966    -0.07300
C1121       C  0.19555339  0.67098738  0.76360707    -0.01900
C1122       C  0.20451552  0.64292861  0.76916550     0.04900
N1123       N  0.23887496  0.64431819  0.75585376     0.67400
H1124       H  0.18561463  0.59064932  0.78357235     0.16300
H1125       H  0.15436854  0.68934507  0.77664478     0.16000
N1126       N  0.10123486  0.63584986  0.80386053     0.75100
O1127       O  0.25805359  0.63953596  0.78346630    -0.38300
O1128       O  0.25023003  0.65037245  0.71650964    -0.38300
O1129       O  0.08613495  0.62300924  0.83971125    -0.39000
O1130       O  0.08412186  0.64312398  0.77587029    -0.39000
C1131       C  0.15166814  0.02363268  0.80078150    -0.11300
C1132       C  0.13532445  0.53586430  0.82518443     0.05700
C1133       C  0.14917857  0.53370733  0.86557793    -0.06600
C1134       C  0.16938628  0.51406621  0.86752410    -0.07300
C1135       C  0.18082610  0.99946258  0.84718062    -0.01900
C1136       C  0.17620606  0.00929678  0.80535796     0.04900
N1137       N  0.20224356  0.01299757  0.77076444     0.67400
H1138       H  0.14599779  0.02880531  0.76820976     0.16300
H1139       H  0.17793671  0.50970092  0.89883669     0.16000
N1140       N  0.14598001  0.55389703  0.90274638     0.75100
O1141       O  0.19530133  0.99382896  0.73762826    -0.38300
O1142       O  0.22941056  0.03953433  0.76928025    -0.38300
O1143       O  0.15592265  0.54998414  0.93981894    -0.39000
O1144       O  0.13983958  0.57969585  0.89685302    -0.39000
C1145       C  0.28352078  0.91279136  0.82705498    -0.11300
C1146       C  0.27907623  0.94165957  0.81569887     0.05700
C1147       C  0.29719091  0.95941169  0.77812513    -0.06600
C1148       C  0.32092776  0.94896694  0.75415649    -0.07300
C1149       C  0.32686765  0.92115588  0.76713653    -0.01900
C1150       C  0.30801797  0.90302319  0.80363331     0.04900
N1151       N  0.31514136  0.87596708  0.81889307     0.67400
H1152       H  0.26873315  0.89845907  0.85500019     0.16300
H1153       H  0.33558498  0.96316061  0.72602687     0.16000
N1154       N  0.29099270  0.98736720  0.76317329     0.75100
O1155       O  0.29347784  0.84666515  0.81236810    -0.38300
O1156       O  0.33754235  0.88164575  0.84772894    -0.38300
O1157       O  0.31379773  0.51217362  0.74226745    -0.39000
O1158       O  0.26432078  0.98234604  0.74123560    -0.39000
C1159       C  0.29739558  0.86362542  0.69808141    -0.11300
C1160       C  0.33391580  0.87335955  0.68864906     0.05700
C1161       C  0.34534067  0.84751736  0.67538820    -0.06300
C1162       C  0.32179375  0.81366385  0.67654536    -0.07300
C1163       C  0.28709272  0.80388446  0.69416953    -0.01900
C1164       C  0.27431231  0.82967394  0.70138151     0.04900
N1165       N  0.23811755  0.82207889  0.71309713     0.67400
H1166       H  0.28688751  0.88252142  0.70589567     0.16300
H1167       H  0.33138473  0.79475627  0.66563343     0.16000
N1168       N  0.38168697  0.85464224  0.66659002     0.75100
O1169       O  0.22919174  0.82608054  0.75248365    -0.38300
O1170       O  0.21743249  0.82024811  0.68319837    -0.38300
O1171       O  0.40114278  0.85838106  0.69848683    -0.39000
O1172       O  0.39268841  0.85075653  0.62815524    -0.39000
C1173       C  0.36574840  0.80503203  0.79151653    -0.11300
C1174       C  0.35455941  0.80981067  0.83487946     0.05700
C1175       C  0.31806788  0.79466146  0.84616398    -0.06600
C1176       C  0.29421416  0.77853578  0.81423945    -0.07300
C1177       C  0.30514824  0.77266100  0.77177859    -0.01900
C1178       C  0.34189356  0.78388871  0.76116707     0.04900
N1179       N  0.35556505  0.77213584  0.72240282     0.67400
H1180       H  0.39341101  0.81619628  0.78203182     0.16300
H1181       H  0.26640499  0.76874898  0.82364388     0.16000
N1182       N  0.30439074  0.79312536  0.89049873     0.75100
O1183       O  0.38733485  0.78669873  0.70954560    -0.38300
O1184       O  0.33727399  0.74504984  0.70377852    -0.38300
O1185       O  0.28273604  0.80654567  0.90067323    -0.39000
O1186       O  0.30639561  0.77144478  0.91538104    -0.39000
C1187       C  0.41251373  0.78180889  0.84396210    -0.11300
C1188       C  0.43242453  0.81579880  0.84978988     0.05700
C1189       C  0.46773536  0.82828737  0.83251392    -0.06600
C1190       C  0.48023961  0.80749501  0.80642732    -0.07300
C1191       C  0.45786663  0.77519831  0.79417830    -0.01900
C1192       C  0.42356678  0.76211134  0.81474318     0.04900
N1193       N  0.39874269  0.72918758  0.80563480     0.67400
H1194       H  0.38652985  0.77087546  0.85967018     0.16300
H1195       H  0.50748634  0.81716315  0.79464115     0.16000
N1196       N  0.49164184  0.86153617  0.84056823     0.75100
O1197       O  0.38201522  0.72357111  0.77086174    -0.38300
O1198       O  0.38767547  0.70849320  0.83638855    -0.38300
O1199       O  0.51885883  0.86623153  0.86133423    -0.39000
O1200       O  0.49076361  0.88467236  0.81755916    -0.39000
N1201       N  0.91285576  0.34042173  0.37383650    -0.02500
C1202       C  0.92207455  0.35979777  0.41081696     0.00100
C1203       C  0.89476830  0.36779834  0.42752516    -0.22800
C1204       C  0.86761674  0.35333630  0.40086301    -0.23000
C1205       C  0.87837991  0.33580078  0.36833603     0.00000
H1206       H  0.89488976  0.38371945  0.45534469     0.13800
H1207       H  0.84274578  0.35584638  0.40587266     0.13800
N1208       N  0.86100890  0.40394161  0.19748316    -0.02500
C1209       C  0.89588899  0.42109500  0.18527231     0.00100
C1210       C  0.91452178  0.43737149  0.22143019    -0.22800
C1211       C  0.89089975  0.43273429  0.25588964    -0.23000
C1212       C  0.85849865  0.41374187  0.24009658     0.00000
H1213       H  0.94165360  0.45471917  0.22150974     0.13800
H1214       H  0.89596096  0.44644271  0.28684869     0.13800
N1215       N  0.61199793  0.04848691  0.33025236    -0.02500
C1216       C  0.57675735  0.02844319  0.33257920     0.00100
C1217       C  0.55975817  0.03854991  0.30175477    -0.22800
C1218       C  0.58456431  0.06619001  0.28167179    -0.23000
C1219       C  0.61642262  0.07302063  0.30087667     0.00000
H1220       H  0.53174083  0.02904134  0.29731095     0.13800
H1221       H  0.57918626  0.08124238  0.25783888     0.13800
C1222       C  0.77854249  0.25174424  0.24224460     0.03200
C1223       C  0.76816738  0.26543539  0.20637487     0.03200
C1224       C  0.73607985  0.24531327  0.18725177    -0.17300
C1225       C  0.71278264  0.21360774  0.20448362     0.03200
C1226       C  0.72315882  0.20090530  0.24178424     0.03200
C1227       C  0.75644641  0.21981687  0.25837368    -0.17300
H1228       H  0.76409508  0.21089568  0.28727082     0.05300
H1229       H  0.72912972  0.25504040  0.15865815     0.05300
N1230       N  0.55214231  0.12532059  0.12120028    -0.02500
C1231       C  0.54261616  0.10256506  0.08754904     0.00100
C1232       C  0.57024955  0.10918346  0.05680587    -0.22800
C1233       C  0.59766812  0.13616878  0.07168718    -0.23000
C1234       C  0.58601413  0.14574919  0.11097081     0.00000
H1235       H  0.57118293  0.09467364  0.02774103     0.13800
H1236       H  0.62426676  0.14576538  0.05758915     0.13800
N1237       N  0.54513821  0.40415285  0.19174252    -0.02500
C1238       C  0.52954245  0.42532689  0.17962931     0.00100
C1239       C  0.53373048  0.44967741  0.21224671    -0.22800
C1240       C  0.55407568  0.44562706  0.24304785    -0.23000
C1241       C  0.56164587  0.41865140  0.22948571     0.00000
H1242       H  0.52543713  0.47040105  0.21210850     0.13800
H1243       H  0.56516776  0.46261994  0.27013876     0.13800
N1244       N  0.90943039  0.04429522  0.35371713    -0.02500
C1245       C  0.92627040  0.02246586  0.35296339     0.00100
C1246       C  0.94255677  0.02152771  0.31246913    -0.22800
C1247       C  0.93927774  0.04565346  0.28826449    -0.23000
C1248       C  0.92087513  0.06043369  0.31456595     0.00000
H1249       H  0.95940639  0.00817051  0.30369946     0.13800
H1250       H  0.95336747  0.05476945  0.25733583     0.13800
C1251       C  0.98922120  0.26570288  0.23343765     0.03200
C1252       C  0.96927358  0.25591718  0.27457032     0.03200
C1253       C  0.96052044  0.22321863  0.28979802    -0.17300
C1254       C  0.96621869  0.19841346  0.26432783     0.03200
C1255       C  0.98615345  0.20754714  0.22448632     0.03200
C1256       C  0.50407900  0.24004419  0.20520253    -0.17300
H1257       H  0.52037160  0.24735823  0.17530752     0.05300
H1258       H  0.94837118  0.21651586  0.32225436     0.05300
C1259       C  0.75935288  0.48195878  0.34449217     0.03200
C1260       C  0.75099745  0.45293840  0.31755471     0.03200
C1261       C  0.71701341  0.43614743  0.30287330    -0.17300
C1262       C  0.69153440  0.44962743  0.30969150     0.03200
C1263       C  0.70052948  0.48064919  0.33277414     0.03200
C1264       C  0.73345969  0.49534919  0.35196816    -0.17300
H1265       H  0.74072213  0.01687277  0.38335788     0.05300
H1266       H  0.71123758  0.41376988  0.28264740     0.05300
Zr1267     Zr  0.99293429  0.48512094  0.08746327     2.17500
O1268       O  0.51566624  0.00273407  0.16448052    -0.50400
O1269       O  0.94227719  0.45677892  0.13876565    -0.73600
O1270       O  0.51326125  0.04524230  0.10534712    -0.80400
O1271       O  0.02215364  0.40757152  0.08451320    -0.82100
O1272       O  0.98830662  0.06910460  0.04994663    -0.77700
O1273       O  0.51199666  0.45793536  0.13490422    -0.89400
O1274       O  0.89434097  0.41979427  0.10631087    -0.75300
O1275       O  0.94446823  0.49003222  0.05380128    -0.84800
O1276       O  0.95909760  0.42976260  0.06373499    -0.84500
O1277       O  0.51926206  0.01813865  0.02879380    -0.71300
O1278       O  0.52853251  0.47133428  0.04946663    -0.83400
Zr1279     Zr  0.97376714  0.45672627  0.41897378     2.26400
Zr1280     Zr  0.96561506  0.02410319  0.99565146     2.06300
Zr1281     Zr  0.99579808  0.41159250  0.01464895     2.10000
Zr1282     Zr  0.91047344  0.43462276  0.02970762     1.78800
O1283       O  0.54310837  0.39670130  0.48533231    -0.92200
O1284       O  0.87194768  0.46367399  0.05221741    -0.40000
O1285       O  0.94995184  0.42315960  0.48363057    -0.76600
O1286       O  0.93341641  0.47145632  0.46786083    -0.95300
O1287       O  0.00724650  0.00807299  0.44994050    -0.88600
O1288       O  0.02070575  0.44977040  0.45559195    -0.91500
C1289       C  0.91137728  0.43298012  0.14047541     1.02300
C1290       C  0.51732298  0.43080346  0.13557297     1.15200
C1291       C  0.51217423  0.07026945  0.08454167     1.06000
O1292       O  0.91354680  0.03481823  0.01909927    -0.93600
O1293       O  0.94280145  0.02717787  0.42766601    -0.89400
O1294       O  0.94503495  0.98397293  0.38491410    -0.82500
C1295       C  0.93780772  0.01007508  0.39153419     1.12600
O1296       O  0.60498356  0.02506461  0.03014854    -0.95600
Zr1297     Zr  0.55256868  0.49992530  0.47876989     1.88900
O1298       O  0.02200193  0.48934694  0.36498498    -0.72300
O1299       O  0.49870357  0.07777228  0.45700786    -0.51500
O1300       O  0.58876485  0.06145547  0.47743895    -0.96200
O1301       O  0.59123857  0.46968218  0.46557304    -0.53400
O1302       O  0.57330049  0.01402022  0.40766831    -0.72800
C1303       C  0.55226132  0.50628278  0.36744069     0.99600
O1304       O  0.93854492  0.42327159  0.35960103    -0.61600
O1305       O  0.96584572  0.35604458  0.04467005    -0.56400
O1306       O  0.97796672  0.40275808  0.40859655    -0.93100
O1307       O  0.95965508  0.37344040  0.46959955    -0.91500
O1308       O  0.87782368  0.37477380  0.03493506    -0.91900
O1309       O  0.85932054  0.41554380  0.48581953    -0.90600
C1310       C  0.95688238  0.37699485  0.42853331     1.18400
H1311       H  0.95191645  0.41429758  0.08765543     0.34400
H1312       H  0.91327608  0.47083545  0.45266340     0.45200
H1313       H  0.53133415  0.43742626  0.43259785     0.38700
H1314       H  0.53683655  0.03939990  0.03635608     0.35200
H1315       H  0.84873255  0.44572853  0.05865110     0.27000
H1316       H  0.48730438  0.09262731  0.46950004     0.32900
H1317       H  0.57578444  0.06888866  0.45660599     0.38800
H1318       H  0.89617344  0.36536073  0.03491103     0.33300
H1319       H  0.98459775  0.34747689  0.04778926     0.32200
H1320       H  0.55910543  0.40038179  0.50977689     0.33900
H1321       H  0.60683574  0.47533348  0.49068962     0.32800
H1322       H  0.83881349  0.40520229  0.50638548     0.36800
H1323       H  0.91478425  0.42359515  0.36492556     0.29600
H1324       H  0.50133901  0.01471679  0.17775241     0.33800
H1325       H  0.59892499  0.00978126  0.05529724     0.36600
H1326       H  0.95834923  0.35961298  0.07519223     0.29300
H1327       H  0.94804969  0.43623889  0.33253703     0.42100
H1328       H  0.91766712  0.05682239  0.00679122     0.32200
H1329       H  0.87971205  0.47379175  0.08139449     0.39800
H1330       H  0.60676229  0.48062953  0.44009994     0.31700
H1331       H  0.52228461  0.08669794  0.97100489     0.31700
H1332       H  0.53962404  0.01994578  0.15974353     0.32000
C1333       C  0.85583841  0.00297961  0.39161450    -0.11300
C1334       C  0.87251144  0.03395557  0.37039673     0.05700
C1335       C  0.84987728  0.05004477  0.35872684    -0.06600
C1336       C  0.81310680  0.53446474  0.34317502    -0.07300
C1337       C  0.79644728  0.50168958  0.35734763    -0.01900
C1338       C  0.81903601  0.98633286  0.39454340     0.04900
N1339       N  0.80388616  0.95637099  0.41930809     0.67400
H1340       H  0.87119408  0.99063393  0.40494228     0.16300
H1341       H  0.79767273  0.54658563  0.32907058     0.16000
N1342       N  0.86293836  0.58687498  0.33767776     0.75100
O1343       O  0.81674634  0.93433986  0.41494371    -0.38300
O1344       O  0.78382450  0.95563728  0.45239629    -0.38300
O1345       O  0.85354184  0.59705059  0.30420229    -0.39000
O1346       O  0.87414935  0.60691138  0.36949651    -0.39000
C1347       C  0.91904182  0.10368661  0.26545186    -0.11300
C1348       C  0.92767228  0.09584623  0.30624870     0.05700
C1349       C  0.94668776  0.12202819  0.33499446    -0.06600
C1350       C  0.95789011  0.15527237  0.32158752    -0.07300
C1351       C  0.95052652  0.16305735  0.27978482    -0.01900
C1352       C  0.92879120  0.13680392  0.25288646     0.04900
N1353       N  0.91409789  0.14331972  0.21454276     0.67400
H1354       H  0.90365278  0.08374760  0.24368607     0.16300
H1355       H  0.97385430  0.17502134  0.34314451     0.16000
N1356       N  0.95693999  0.11525287  0.37645723     0.75100
O1357       O  0.91464756  0.12726403  0.17933334    -0.38300
O1358       O  0.89271454  0.15766205  0.21915748    -0.38300
O1359       O  0.98694507  0.11440493  0.37936861    -0.39000
O1360       O  0.93953801  0.11711178  0.41111142    -0.39000
C1361       C  0.59338510  0.41143076  0.29282058    -0.11300
C1362       C  0.59269876  0.41505696  0.24722416     0.05700
C1363       C  0.62452969  0.42492106  0.22179174    -0.06600
C1364       C  0.65616179  0.43149027  0.24233235    -0.07300
C1365       C  0.65721742  0.43263805  0.28839517    -0.01900
C1366       C  0.62538380  0.42007111  0.31344588     0.04900
N1367       N  0.62540017  0.41592042  0.35973682     0.67400
H1368       H  0.56919767  0.40415220  0.31278016     0.16300
H1369       H  0.68042688  0.43916760  0.22246440     0.16000
N1370       N  0.62596149  0.43477741  0.17718485     0.75100
O1371       O  0.61715109  0.43485138  0.38636368    -0.38300
O1372       O  0.63495307  0.39402559  0.37406790    -0.38300
O1373       O  0.62847387  0.46387545  0.16912486    -0.39000
O1374       O  0.62579661  0.41497444  0.14583505    -0.39000
C1375       C  0.98661512  0.32249795  0.21358894    -0.11300
C1376       C  0.50666785  0.29885725  0.21186132     0.05700
C1377       C  0.54275988  0.31746998  0.20150747    -0.06600
C1378       C  0.55439250  0.35104545  0.18919334    -0.07300
C1379       C  0.53129570  0.36775675  0.18770351    -0.01900
C1380       C  0.00297601  0.35589700  0.19834893     0.04900
N1381       N  0.98346795  0.37673474  0.19874396     0.67400
H1382       H  0.95931061  0.31341518  0.22490333     0.16300
H1383       H  0.58225954  0.36473520  0.18410246     0.16000
N1384       N  0.56859698  0.30367901  0.20676838     0.75100
O1385       O  0.96831740  0.37791106  0.16441262    -0.38300
O1386       O  0.98993341  0.40024762  0.22665250    -0.38300
O1387       O  0.58336859  0.29616769  0.17306656    -0.39000
O1388       O  0.58246462  0.30677526  0.24341196    -0.39000
C1389       C  0.53917975  0.14695523  0.19223661    -0.11300
C1390       C  0.52990325  0.13743944  0.14870734     0.05700
C1391       C  0.99958878  0.15142400  0.13340571    -0.06600
C1392       C  0.98819317  0.17376491  0.15734347    -0.07300
C1393       C  0.50700331  0.18362234  0.19496180    -0.01900
C1394       C  0.52907270  0.17071786  0.21478148     0.04900
N1395       N  0.54512872  0.18475198  0.25508383     0.67400
H1396       H  0.55744407  0.13848401  0.20701382     0.16300
H1397       H  0.97124662  0.18373334  0.14218892     0.16000
N1398       N  0.98981349  0.14387211  0.08889214     0.75100
O1399       O  0.53736108  0.16728819  0.28911434    -0.38300
O1400       O  0.57236500  0.21122474  0.25407945    -0.38300
O1401       O  0.96114676  0.12029026  0.08082373    -0.39000
O1402       O  0.00538703  0.16481238  0.05947808    -0.39000
C1403       C  0.66035454  0.21468222  0.16569085    -0.11300
C1404       C  0.67729347  0.19568386  0.18408412     0.05700
C1405       C  0.65972085  0.16023083  0.18133878    -0.06600
C1406       C  0.62549958  0.14598286  0.16682444    -0.07300
C1407       C  0.61180308  0.16463474  0.14348143    -0.01900
C1408       C  0.62970505  0.19931882  0.14212945     0.04900
N1409       N  0.61942134  0.21866807  0.11318728     0.67400
H1410       H  0.67202270  0.24159982  0.16657513     0.16300
H1411       H  0.61251289  0.11904910  0.16538516     0.16000
N1412       N  0.67779550  0.13814876  0.18322123     0.75100
O1413       O  0.60281030  0.23602222  0.12826648    -0.38300
O1414       O  0.63159886  0.22236354  0.07394513    -0.38300
O1415       O  0.66140127  0.10932288  0.19832761    -0.39000
O1416       O  0.70355179  0.14250628  0.15652702    -0.39000
C1417       C  0.68240020  0.11088209  0.28752955    -0.11300
C1418       C  0.64710008  0.10700682  0.29728886     0.05700
C1419       C  0.63993510  0.13642403  0.29757725    -0.06600
C1420       C  0.66538146  0.16684030  0.28204145    -0.07300
C1421       C  0.69903075  0.16962438  0.26625631    -0.01900
C1422       C  0.70815410  0.14167213  0.27201635     0.04900
N1423       N  0.74206791  0.14282341  0.25700198     0.67400
H1424       H  0.68950701  0.08946298  0.28775097     0.16300
H1425       H  0.65817111  0.18821025  0.28041956     0.16000
N1426       N  0.60592580  0.13544928  0.31151715     0.75100
O1427       O  0.76435380  0.14396200  0.28437236    -0.38300
O1428       O  0.75070861  0.14499967  0.21652153    -0.38300
O1429       O  0.59209876  0.12337358  0.34823082    -0.39000
O1430       O  0.58803577  0.14299252  0.28482768    -0.39000
C1431       C  0.64747707  0.52592601  0.29003683    -0.11300
C1432       C  0.63824949  0.03473576  0.33506486     0.05700
C1433       C  0.64965005  0.03127030  0.37664399    -0.06600
C1434       C  0.66828492  0.01041082  0.38055160    -0.07300
C1435       C  0.67831328  0.50041886  0.33167888    -0.01900
C1436       C  0.67296927  0.51230430  0.29148751     0.04900
N1437       N  0.69966593  0.51996184  0.25688060     0.67400
H1438       H  0.64120095  0.53252820  0.25856946     0.16300
H1439       H  0.67518023  0.00561087  0.41265786     0.16000
N1440       N  0.64537382  0.05107401  0.41363404     0.75100
O1441       O  0.69885401  0.49918017  0.22670461    -0.38300
O1442       O  0.72392936  0.54857019  0.25589449    -0.38300
O1443       O  0.65189359  0.04526974  0.45174441    -0.39000
O1444       O  0.64098593  0.07772479  0.40742354    -0.39000
C1445       C  0.78091446  0.41364563  0.31134709    -0.11300
C1446       C  0.77819175  0.44265735  0.29719947     0.05700
C1447       C  0.79966892  0.46029976  0.26157809    -0.06600
C1448       C  0.82475410  0.44941345  0.24207628    -0.07300
C1449       C  0.82856314  0.42117287  0.25761083    -0.01900
C1450       C  0.80652353  0.40325895  0.29228309     0.04900
N1451       N  0.81112296  0.37558055  0.30993674     0.67400
H1452       H  0.76380974  0.39964921  0.33809073     0.16300
H1453       H  0.84178433  0.46334188  0.21521931     0.16000
N1454       N  0.79556812  0.48859894  0.24414863     0.75100
O1455       O  0.78903181  0.34666279  0.30229669    -0.38300
O1456       O  0.83098423  0.38057266  0.34159144    -0.38300
O1457       O  0.81701781  0.01360170  0.26226854    -0.39000
O1458       O  0.77063991  0.48418755  0.21928720    -0.39000
C1459       C  0.79988997  0.36107567  0.19121793    -0.11300
C1460       C  0.83656429  0.37061325  0.18330916     0.05700
C1461       C  0.84806881  0.34446043  0.17235796    -0.06300
C1462       C  0.82451777  0.31064562  0.17488445    -0.07300
C1463       C  0.78945432  0.30125945  0.19106110    -0.01900
C1464       C  0.77663850  0.32720674  0.19549786     0.04900
N1465       N  0.74025650  0.31992990  0.20547259     0.67400
H1466       H  0.78933492  0.38014334  0.19719444     0.16300
H1467       H  0.83435685  0.29150173  0.16619803     0.16000
N1468       N  0.88443745  0.35141184  0.16443368     0.75100
O1469       O  0.73003590  0.32253277  0.24470582    -0.38300
O1470       O  0.72090969  0.31986587  0.17477506    -0.38300
O1471       O  0.90297787  0.35318402  0.19668146    -0.39000
O1472       O  0.89620485  0.34917658  0.12585518    -0.39000
C1473       C  0.86621580  0.30695853  0.29293725    -0.11300
C1474       C  0.85375438  0.31379715  0.33477807     0.05700
C1475       C  0.81696808  0.29922005  0.34438857    -0.06600
C1476       C  0.79418697  0.28123782  0.31231345    -0.07300
C1477       C  0.80641620  0.27321900  0.27175970    -0.01900
C1478       C  0.84332583  0.28423671  0.26296717     0.04900
N1479       N  0.85798785  0.27095136  0.22650358     0.67400
H1480       H  0.89407566  0.31779430  0.28452670     0.16300
H1481       H  0.76614327  0.27172683  0.32028588     0.16000
N1482       N  0.80184299  0.29993634  0.38751645     0.75100
O1483       O  0.89016354  0.28472005  0.21511116    -0.38300
O1484       O  0.84001158  0.24335507  0.20878792    -0.38300
O1485       O  0.78038736  0.31410171  0.39380630    -0.39000
O1486       O  0.80225611  0.27922772  0.41516415    -0.39000
C1487       C  0.91077434  0.28552490  0.35162459    -0.11300
C1488       C  0.93037479  0.31971854  0.35457614     0.05700
C1489       C  0.96541790  0.33210064  0.33658262    -0.06600
C1490       C  0.97825205  0.31049957  0.31305676    -0.07300
C1491       C  0.95609230  0.27762382  0.30329082    -0.01900
C1492       C  0.92192555  0.26493332  0.32430305     0.04900
N1493       N  0.89717676  0.23166265  0.31703816     0.67400
H1494       H  0.88480230  0.27516215  0.36753486     0.16300
H1495       H  0.00533178  0.32005134  0.30063645     0.16000
N1496       N  0.98821595  0.36628908  0.34007037     0.75100
O1497       O  0.87905369  0.22518781  0.28339965    -0.38300
O1498       O  0.88707259  0.21189100  0.34887138    -0.38300
O1499       O  0.01787445  0.37388332  0.35632536    -0.39000
O1500       O  0.98265754  0.38752091  0.31788909    -0.39000
N1501       N  0.91059319  0.33580195  0.87101730    -0.02500
C1502       C  0.92102419  0.35601011  0.90719994     0.00100
C1503       C  0.89412508  0.36408525  0.92539238    -0.22800
C1504       C  0.86610458  0.34926628  0.90033823    -0.23000
C1505       C  0.87599841  0.33152723  0.86742297     0.00000
H1506       H  0.89509985  0.38053222  0.95286668     0.13800
H1507       H  0.84137966  0.35217217  0.90562691     0.13800
N1508       N  0.85842112  0.40965727  0.70063695    -0.02500
C1509       C  0.89323719  0.42701667  0.68742111     0.00100
C1510       C  0.91233587  0.44411641  0.72289312    -0.22800
C1511       C  0.88938495  0.43956488  0.75795343    -0.23000
C1512       C  0.85691394  0.41969300  0.74336714     0.00000
H1513       H  0.93949726  0.46143531  0.72229401     0.13800
H1514       H  0.89487965  0.45308736  0.78901010     0.13800
N1515       N  0.61115392  0.05054032  0.82663847    -0.02500
C1516       C  0.57608070  0.02992801  0.82984044     0.00100
C1517       C  0.55815635  0.03946882  0.79959497    -0.22800
C1518       C  0.58215341  0.06731083  0.77902451    -0.23000
C1519       C  0.61447867  0.07485954  0.79733558     0.00000
H1520       H  0.53003627  0.02941298  0.79585858     0.13800
H1521       H  0.57589170  0.08213874  0.75569623     0.13800
C1522       C  0.77241481  0.25634262  0.74104757     0.03200
C1523       C  0.76146171  0.27162989  0.70738335     0.03200
C1524       C  0.72873192  0.25227769  0.68882101    -0.17300
C1525       C  0.70572023  0.21974043  0.70443591     0.03200
C1526       C  0.71682404  0.20578959  0.73995617     0.03200
C1527       C  0.75047390  0.22398054  0.75574300    -0.17300
H1528       H  0.75877584  0.21388467  0.78303914     0.05300
H1529       H  0.72139353  0.26308548  0.66160012     0.05300
N1530       N  0.54651707  0.12933039  0.61938110    -0.02500
C1531       C  0.53829727  0.10629780  0.58600163     0.00100
C1532       C  0.56641609  0.11398594  0.55578870    -0.22800
C1533       C  0.59266969  0.14205083  0.57080981    -0.23000
C1534       C  0.57988202  0.15111030  0.60972051     0.00000
H1535       H  0.56851139  0.09949200  0.52711819     0.13800
H1536       H  0.61939369  0.15266133  0.55724795     0.13800
N1537       N  0.56117438  0.40571186  0.67725170    -0.02500
C1538       C  0.55926002  0.42886664  0.64871243     0.00100
C1539       C  0.58679757  0.45918004  0.65487901    -0.22800
C1540       C  0.60608295  0.45560819  0.68739009    -0.23000
C1541       C  0.59047087  0.42310065  0.70047123     0.00000
H1542       H  0.59191255  0.48211131  0.63783888     0.13800
H1543       H  0.62918098  0.47484521  0.70033582     0.13800
N1544       N  0.90985830  0.04315642  0.84685105    -0.02500
C1545       C  0.92631950  0.02114426  0.84876569     0.00100
C1546       C  0.94341757  0.01904145  0.80922872    -0.22800
C1547       C  0.94118013  0.04263033  0.78310560    -0.23000
C1548       C  0.92263023  0.05834002  0.80731993     0.00000
H1549       H  0.96026372  0.00538882  0.80242183     0.13800
H1550       H  0.95624497  0.05094602  0.75252934     0.13800
C1551       C  0.99171553  0.26456994  0.73057822     0.03200
C1552       C  0.96813004  0.25278204  0.76830548     0.03200
C1553       C  0.95855104  0.21957296  0.78159720    -0.17300
C1554       C  0.96862648  0.19663353  0.75747925     0.03200
C1555       C  0.99265666  0.20801396  0.72120550     0.03200
C1556       C  0.49612237  0.24161907  0.70452004    -0.17300
H1557       H  0.50980342  0.24776975  0.67273582     0.05300
H1558       H  0.94277870  0.21109308  0.81159565     0.05300
C1559       C  0.75925679  0.48194297  0.85817988     0.03200
C1560       C  0.74978184  0.45059411  0.83669447     0.03200
C1561       C  0.71501065  0.43170016  0.82694485    -0.17300
C1562       C  0.69022878  0.44627491  0.82679043     0.03200
C1563       C  0.69991194  0.47931032  0.84496834     0.03200
C1564       C  0.73333544  0.49553796  0.86313730    -0.17300
H1565       H  0.74136884  0.01948503  0.87559862     0.05300
H1566       H  0.70892706  0.40722630  0.81191221     0.05300
Zr1567     Zr  0.99229044  0.48973771  0.58965712     2.17500
O1568       O  0.51263251  0.00715620  0.66551892    -0.50400
O1569       O  0.94080226  0.46008657  0.63994863    -0.73600
O1570       O  0.51012007  0.04867379  0.60429361    -0.80400
O1571       O  0.00987519  0.41002881  0.59832363    -0.82100
O1572       O  0.99466371  0.06955207  0.54968263    -0.77700
O1573       O  0.52473111  0.45476183  0.62206058    -0.89400
O1574       O  0.89192206  0.42411348  0.60823883    -0.75300
O1575       O  0.94381311  0.49332693  0.55430227    -0.84800
O1576       O  0.95870864  0.43372408  0.56756778    -0.84500
O1577       O  0.51756061  0.02055797  0.52975153    -0.71300
O1578       O  0.52961142  0.46556248  0.54192854    -0.83400
Zr1579     Zr  0.97330258  0.45469881  0.91593726     2.26400
Zr1580     Zr  0.96746286  0.02366150  0.49792976     2.06300
Zr1581     Zr  0.99666495  0.41575368  0.52027109     2.10000
Zr1582     Zr  0.91019547  0.43742817  0.53177338     1.78800
O1583       O  0.54878387  0.40743132  0.00220586    -0.92200
O1584       O  0.87235191  0.46730767  0.55320550    -0.40000
O1585       O  0.94931915  0.42039036  0.97971654    -0.76600
O1586       O  0.93363541  0.46930613  0.96620108    -0.95300
O1587       O  0.00662368  0.00916837  0.94916977    -0.88600
O1588       O  0.02008939  0.44667186  0.95113142    -0.91500
C1589       C  0.90917696  0.43731678  0.64219964     1.02300
C1590       C  0.53225074  0.42868400  0.61796559     1.15200
C1591       C  0.50869434  0.07331051  0.58272459     1.06000
O1592       O  0.91589722  0.03315858  0.52693182    -0.93600
O1593       O  0.94113337  0.02704222  0.92474401    -0.89400
O1594       O  0.94531805  0.98405724  0.88329797    -0.82500
C1595       C  0.93718947  0.00970484  0.88880369     1.12600
O1596       O  0.60203009  0.02550970  0.53563205    -0.95600
Zr1597     Zr  0.55352941  0.50427691  0.98505902     1.88900
O1598       O  0.02184367  0.48746906  0.86223155    -0.72300
O1599       O  0.49794118  0.07743297  0.96088295    -0.51500
O1600       O  0.59126982  0.05986494  0.97405385    -0.96200
O1601       O  0.59505774  0.47672712  0.97613015    -0.53400
O1602       O  0.57403663  0.01444646  0.90454366    -0.72800
C1603       C  0.55525916  0.50921726  0.87267898     0.99600
O1604       O  0.93726001  0.42159483  0.85699075    -0.61600
O1605       O  0.97807316  0.35735197  0.53937881    -0.56400
O1606       O  0.97625337  0.40024577  0.90348445    -0.93100
O1607       O  0.96067583  0.36917179  0.96337598    -0.91500
O1608       O  0.87987888  0.37732062  0.53813110    -0.91900
O1609       O  0.85896429  0.41218786  0.98497633    -0.90600
C1610       C  0.95624834  0.37380657  0.92326328     1.18400
H1611       H  0.95106579  0.41839358  0.59163232     0.34400
H1612       H  0.91366538  0.46936472  0.95123179     0.45200
H1613       H  0.53431581  0.44085962  0.94195259     0.38700
H1614       H  0.53500565  0.04217390  0.53699104     0.35200
H1615       H  0.86643062  0.47435928  0.52522669     0.27000
H1616       H  0.48651349  0.09165780  0.97530193     0.32900
H1617       H  0.57729870  0.06806595  0.95570858     0.38800
H1618       H  0.89898930  0.36888172  0.53823203     0.33300
H1619       H  0.99888183  0.35531490  0.55159591     0.32200
H1620       H  0.56145197  0.40991126  0.02961557     0.33900
H1621       H  0.61729757  0.49248968  0.98805165     0.32800
H1622       H  0.85547448  0.43184417  0.97428443     0.36800
H1623       H  0.91364467  0.42208443  0.86309719     0.29600
H1624       H  0.49819931  0.01932589  0.67787392     0.33800
H1625       H  0.58973989  0.02572831  0.56441565     0.36600
H1626       H  0.96113684  0.35422767  0.56477681     0.29300
H1627       H  0.94642856  0.43468534  0.82995564     0.42100
H1628       H  0.90065025  0.02898078  0.50158458     0.32200
H1629       H  0.85005803  0.45005784  0.56450074     0.39800
H1630       H  0.60023808  0.47634734  0.94408339     0.31700
H1631       H  0.52266324  0.08698658  0.46831766     0.31700
H1632       H  0.53655859  0.02435713  0.66048926     0.32000
C1633       C  0.85510895  0.00364033  0.88504386    -0.11300
C1634       C  0.87252804  0.03352831  0.86160447     0.05700
C1635       C  0.85045837  0.04933983  0.84687164    -0.06600
C1636       C  0.81338345  0.53473507  0.85084569    -0.07300
C1637       C  0.79726915  0.50255380  0.86747375    -0.01900
C1638       C  0.81817760  0.98786671  0.88836422     0.04900
N1639       N  0.80228778  0.95945716  0.91584466     0.67400
H1640       H  0.86998680  0.99159044  0.90021706     0.16300
H1641       H  0.79725622  0.54654338  0.83777413     0.16000
N1642       N  0.86347362  0.58623112  0.83793741     0.75100
O1643       O  0.81366751  0.93633819  0.91365874    -0.38300
O1644       O  0.78301908  0.96121261  0.94868945    -0.38300
O1645       O  0.85254754  0.59475217  0.80435386    -0.39000
O1646       O  0.87703767  0.60790247  0.86734316    -0.39000
C1647       C  0.92494974  0.10158383  0.75529772    -0.11300
C1648       C  0.93087667  0.09379490  0.79756456     0.05700
C1649       C  0.94800846  0.11995348  0.82729240    -0.06600
C1650       C  0.95882293  0.15318003  0.81419810    -0.07300
C1651       C  0.95364906  0.16099441  0.77139969    -0.01900
C1652       C  0.93496682  0.13466765  0.74248541     0.04900
N1653       N  0.92377999  0.14093499  0.70131424     0.67400
H1654       H  0.91140059  0.08161951  0.73246406     0.16300
H1655       H  0.97293354  0.17299386  0.83689393     0.16000
N1656       N  0.95679399  0.11321862  0.86963476     0.75100
O1657       O  0.92875424  0.12580965  0.66706820    -0.38300
O1658       O  0.90111463  0.15380422  0.70140481    -0.38300
O1659       O  0.98629252  0.11163966  0.87427879    -0.39000
O1660       O  0.93843285  0.11528508  0.90325573    -0.39000
C1661       C  0.59884286  0.41821926  0.77955264    -0.11300
C1662       C  0.60664385  0.41168907  0.73546711     0.05700
C1663       C  0.63886333  0.40832871  0.72518106    -0.06600
C1664       C  0.66458699  0.41715579  0.75655913    -0.07300
C1665       C  0.65890461  0.42895176  0.79889736    -0.01900
C1666       C  0.62435512  0.42561238  0.81165412     0.04900
N1667       N  0.61481207  0.42882295  0.85690771     0.67400
H1668       H  0.57371250  0.41975077  0.78838204     0.16300
H1669       H  0.69039608  0.41802175  0.74592143     0.16000
N1670       N  0.64767163  0.40006400  0.68142265     0.75100
O1671       O  0.59706670  0.44607777  0.86788489    -0.38300
O1672       O  0.61902542  0.41004681  0.88475694    -0.38300
O1673       O  0.65597406  0.42149305  0.65163647    -0.39000
O1674       O  0.65281886  0.37349982  0.67440315    -0.39000
C1675       C  0.98254191  0.31684039  0.70827680    -0.11300
C1676       C  0.50632375  0.30267532  0.71317289     0.05700
C1677       C  0.54177292  0.31562292  0.69612454    -0.06600
C1678       C  0.55740847  0.34816403  0.68020745    -0.07300
C1679       C  0.54019916  0.37025121  0.68263045    -0.01900
C1680       C  0.99532535  0.35070389  0.69592031     0.04900
N1681       N  0.97111306  0.36667453  0.69504649     0.67400
H1682       H  0.95460332  0.30378782  0.71497080     0.16300
H1683       H  0.58440260  0.35701970  0.66791970     0.16000
N1684       N  0.56354459  0.29688086  0.69676490     0.75100
O1685       O  0.95957208  0.36987005  0.65877450    -0.38300
O1686       O  0.96600363  0.38233254  0.72864887    -0.38300
O1687       O  0.57585312  0.28966450  0.66082173    -0.39000
O1688       O  0.57763425  0.29557397  0.73198288    -0.39000
C1689       C  0.52961093  0.14672852  0.69079403    -0.11300
C1690       C  0.52314070  0.14037504  0.64606413     0.05700
C1691       C  0.01152757  0.15625059  0.62844420    -0.06600
C1692       C  0.00010797  0.17860630  0.65221443    -0.07300
C1693       C  0.49950190  0.18528543  0.69430231    -0.01900
C1694       C  0.51955978  0.17010938  0.71436055     0.04900
N1695       N  0.53413849  0.18161086  0.75620952     0.67400
H1696       H  0.54643701  0.13661017  0.70587583     0.16300
H1697       H  0.98626414  0.19115962  0.63557638     0.16000
N1698       N  0.00751572  0.15308200  0.58205180     0.75100
O1699       O  0.52781710  0.16122868  0.78697756    -0.38300
O1700       O  0.55975898  0.20924904  0.75875435    -0.38300
O1701       O  0.97831052  0.13460920  0.56718299    -0.39000
O1702       O  0.03071730  0.17306767  0.55678267    -0.39000
C1703       C  0.65313893  0.22069375  0.66531507    -0.11300
C1704       C  0.67015595  0.20183415  0.68387829     0.05700
C1705       C  0.65253965  0.16635319  0.68102811    -0.06600
C1706       C  0.61808396  0.15208968  0.66735199    -0.07300
C1707       C  0.60461713  0.17045287  0.64319426    -0.01900
C1708       C  0.62249602  0.20515952  0.64170477     0.04900
N1709       N  0.61168432  0.22450709  0.61345027     0.67400
H1710       H  0.66451533  0.24760258  0.66633439     0.16300
H1711       H  0.60510791  0.12514668  0.66615839     0.16000
N1712       N  0.67085941  0.14436422  0.68049068     0.75100
O1713       O  0.58706106  0.23360771  0.62580386    -0.38300
O1714       O  0.62852696  0.23462773  0.57749569    -0.38300
O1715       O  0.65497988  0.11524458  0.69490810    -0.39000
O1716       O  0.69569141  0.14917519  0.65219785    -0.39000
C1717       C  0.67940007  0.11452328  0.78184711    -0.11300
C1718       C  0.64411643  0.10950033  0.79382168     0.05700
C1719       C  0.63572005  0.13830943  0.79590900    -0.06600
C1720       C  0.66010982  0.16945341  0.78088153    -0.07300
C1721       C  0.69368078  0.17350430  0.76326019    -0.01900
C1722       C  0.70393328  0.14594094  0.76639277     0.04900
N1723       N  0.73758147  0.14817123  0.74857215     0.67400
H1724       H  0.68718567  0.09344810  0.78014489     0.16300
H1725       H  0.65203206  0.19037915  0.78096072     0.16000
N1726       N  0.60135183  0.13593471  0.81060222     0.75100
O1727       O  0.76073869  0.14804299  0.77379945    -0.38300
O1728       O  0.74527804  0.15304055  0.70808401    -0.38300
O1729       O  0.58772478  0.12231839  0.84662428    -0.39000
O1730       O  0.58303517  0.14388142  0.78497379    -0.39000
C1731       C  0.64772929  0.52364754  0.79654477    -0.11300
C1732       C  0.63809056  0.03748497  0.83082650     0.05700
C1733       C  0.65056937  0.03499518  0.87209817    -0.06600
C1734       C  0.66906576  0.01398596  0.87614417    -0.07300
C1735       C  0.67815518  0.49931814  0.84098415    -0.01900
C1736       C  0.67160725  0.50824925  0.79944057     0.04900
N1737       N  0.69509246  0.50961737  0.76252928     0.67400
H1738       H  0.64057380  0.52824793  0.76447007     0.16300
H1739       H  0.67692329  0.01009309  0.90812703     0.16000
N1740       N  0.64721658  0.05568586  0.90858258     0.75100
O1741       O  0.68811401  0.48593960  0.73495119    -0.38300
O1742       O  0.72073445  0.53659583  0.75453203    -0.38300
O1743       O  0.65559759  0.05137397  0.94640844    -0.39000
O1744       O  0.64192114  0.08179899  0.90177991    -0.39000
C1745       C  0.78228408  0.41380815  0.82356798    -0.11300
C1746       C  0.77602528  0.44154237  0.81152196     0.05700
C1747       C  0.79288566  0.45912836  0.77332227    -0.06600
C1748       C  0.81817260  0.45043300  0.75016116    -0.07300
C1749       C  0.82631086  0.42414438  0.76424241    -0.01900
C1750       C  0.80803516  0.40557908  0.80070500     0.04900
N1751       N  0.81642741  0.37924627  0.81592605     0.67400
H1752       H  0.76812895  0.39938976  0.85176278     0.16300
H1753       H  0.83196569  0.46454926  0.72156483     0.16000
N1754       N  0.78346412  0.48474861  0.75671607     0.75100
O1755       O  0.79354134  0.35000216  0.81502830    -0.38300
O1756       O  0.84244835  0.38622254  0.83965758    -0.38300
O1757       O  0.81098987  0.01021628  0.75231248    -0.39000
O1758       O  0.75648224  0.47663569  0.73436407    -0.39000
C1759       C  0.79611211  0.36822966  0.69561659    -0.11300
C1760       C  0.83257256  0.37687014  0.68630631     0.05700
C1761       C  0.84261485  0.35006963  0.67383958    -0.06300
C1762       C  0.81793845  0.31655690  0.67511837    -0.07300
C1763       C  0.78339570  0.30779173  0.69307826    -0.01900
C1764       C  0.77200229  0.33458498  0.70005146     0.04900
N1765       N  0.73633659  0.32847485  0.71308660     0.67400
H1766       H  0.78640539  0.38776154  0.70269236     0.16300
H1767       H  0.82662349  0.29702676  0.66437654     0.16000
N1768       N  0.87874143  0.35584851  0.66654281     0.75100
O1769       O  0.72857709  0.33212573  0.75304135    -0.38300
O1770       O  0.71574890  0.32911918  0.68432336    -0.38300
O1771       O  0.89769085  0.36152045  0.69930523    -0.39000
O1772       O  0.88981108  0.34885646  0.62962600    -0.39000
C1773       C  0.86187584  0.30688566  0.79055984    -0.11300
C1774       C  0.85062003  0.31107765  0.83404870     0.05700
C1775       C  0.81417987  0.29627505  0.84532530    -0.06600
C1776       C  0.79028997  0.28126907  0.81310379    -0.07300
C1777       C  0.80124795  0.27597624  0.77038290    -0.01900
C1778       C  0.83791561  0.28657732  0.75984015     0.04900
N1779       N  0.85131937  0.27489119  0.72081786     0.67400
H1780       H  0.88960478  0.31774525  0.78129962     0.16300
H1781       H  0.76246632  0.27170786  0.82242897     0.16000
N1782       N  0.80067926  0.29412101  0.88982477     0.75100
O1783       O  0.88309378  0.28927876  0.70789364    -0.38300
O1784       O  0.83275059  0.24801855  0.70195392    -0.38300
O1785       O  0.77902699  0.30737385  0.90086580    -0.39000
O1786       O  0.80299334  0.27221082  0.91402487    -0.39000
C1787       C  0.90712109  0.28132491  0.84252460    -0.11300
C1788       C  0.92763006  0.31515783  0.84959894     0.05700
C1789       C  0.96335501  0.32713358  0.83380807    -0.06600
C1790       C  0.97614748  0.30593503  0.80940991    -0.07300
C1791       C  0.95379062  0.27392653  0.79642600    -0.01900
C1792       C  0.91865820  0.26147453  0.81404726     0.04900
N1793       N  0.89357344  0.22934227  0.80201317     0.67400
H1794       H  0.88057794  0.27069432  0.85664142     0.16300
H1795       H  0.00375856  0.31518608  0.79929787     0.16000
N1796       N  0.98739847  0.36045768  0.84086241     0.75100
O1797       O  0.88009476  0.22518668  0.76498911    -0.38300
O1798       O  0.87937907  0.20788823  0.83132456    -0.38300
O1799       O  0.01443828  0.36533524  0.86209970    -0.39000
O1800       O  0.98738199  0.38290386  0.81584657    -0.39000
N1801       N  0.91280638  0.83524890  0.37621176    -0.02500
C1802       C  0.92294433  0.85289530  0.41465876     0.00100
C1803       C  0.89534867  0.85839111  0.43557844    -0.22800
C1804       C  0.86748302  0.84519352  0.40987870    -0.23000
C1805       C  0.87772618  0.83010711  0.37405256     0.00000
H1806       H  0.89591469  0.87247886  0.46545559     0.13800
H1807       H  0.84253500  0.84722997  0.41715765     0.13800
N1808       N  0.85825633  0.90447379  0.20562924    -0.02500
C1809       C  0.89263385  0.92172827  0.19134491     0.00100
C1810       C  0.91297776  0.93669798  0.22685635    -0.22800
C1811       C  0.89102043  0.93103675  0.26317607    -0.23000
C1812       C  0.85782545  0.91276755  0.24922782     0.00000
H1813       H  0.94033763  0.95351131  0.22583487     0.13800
H1814       H  0.89766746  0.94357177  0.29474940     0.13800
N1815       N  0.60628748  0.54805987  0.32657051    -0.02500
C1816       C  0.57134739  0.52711853  0.32829561     0.00100
C1817       C  0.55386643  0.53699196  0.29785377    -0.22800
C1818       C  0.57799777  0.56551583  0.27884246    -0.23000
C1819       C  0.60984083  0.57305935  0.29844681     0.00000
H1820       H  0.52589177  0.52667484  0.29304111     0.13800
H1821       H  0.57211508  0.58044976  0.25533049     0.13800
C1822       C  0.77235850  0.75324651  0.24817252     0.03200
C1823       C  0.76264553  0.76760464  0.21232024     0.03200
C1824       C  0.73091837  0.74802027  0.19197716    -0.17300
C1825       C  0.70719106  0.71601688  0.20771066     0.03200
C1826       C  0.71654540  0.70275700  0.24525942     0.03200
C1827       C  0.74947772  0.72119100  0.26319458    -0.17300
H1828       H  0.75649300  0.71139700  0.29180365     0.05300
H1829       H  0.72471851  0.75837152  0.16339961     0.05300
N1830       N  0.54855024  0.62958927  0.11777667    -0.02500
C1831       C  0.53798755  0.60779363  0.08329363     0.00100
C1832       C  0.56539906  0.61419230  0.05219365    -0.22800
C1833       C  0.59368926  0.64005330  0.06787144    -0.23000
C1834       C  0.58269939  0.64925458  0.10784736     0.00000
H1835       H  0.56559719  0.60000225  0.02250804     0.13800
H1836       H  0.62021476  0.64920116  0.05355468     0.13800
N1837       N  0.56327970  0.90643548  0.17897779    -0.02500
C1838       C  0.55988190  0.92940226  0.15134972     0.00100
C1839       C  0.58658852  0.96030141  0.15738449    -0.22800
C1840       C  0.60703797  0.95733377  0.18869862    -0.23000
C1841       C  0.59293731  0.92462005  0.20108605     0.00000
H1842       H  0.59059620  0.98312846  0.14069889     0.13800
H1843       H  0.63008464  0.97701129  0.20108848     0.13800
N1844       N  0.90855110  0.54538090  0.34473309    -0.02500
C1845       C  0.92527281  0.52352389  0.34607304     0.00100
C1846       C  0.94168294  0.52133440  0.30603395    -0.22800
C1847       C  0.93872994  0.54469828  0.28008381    -0.23000
C1848       C  0.92040486  0.56029875  0.30489244     0.00000
H1849       H  0.95848361  0.50771745  0.29862296     0.13800
H1850       H  0.95305259  0.55287605  0.24902075     0.13800
C1851       C  0.98927246  0.76535091  0.22470697     0.03200
C1852       C  0.96768104  0.75437681  0.26424719     0.03200
C1853       C  0.95830363  0.72122794  0.27751450    -0.17300
C1854       C  0.96570767  0.69742824  0.25177731     0.03200
C1855       C  0.98743364  0.70770681  0.21332447     0.03200
C1856       C  0.49904535  0.74266728  0.20431865    -0.17300
H1857       H  0.51448834  0.74979755  0.17377154     0.05300
H1858       H  0.94472543  0.71343673  0.30901946     0.05300
C1859       C  0.76027905  0.97908956  0.36281808     0.03200
C1860       C  0.75184539  0.94857441  0.33932802     0.03200
C1861       C  0.71758912  0.93045914  0.32675052    -0.17300
C1862       C  0.69283196  0.94515452  0.32732535     0.03200
C1863       C  0.70177957  0.97734105  0.34747073     0.03200
C1864       C  0.73426072  0.99257052  0.36777695    -0.17300
H1865       H  0.74001603  0.51891094  0.36960744     0.05300
H1866       H  0.71196774  0.90677500  0.30959983     0.05300
Zr1867     Zr  0.98845311  0.98686674  0.09429466     2.17500
O1868       O  0.51699301  0.51372931  0.16133993    -0.50400
O1869       O  0.93749592  0.95818740  0.14441815    -0.73600
O1870       O  0.50602912  0.55134416  0.10434332    -0.80400
O1871       O  0.02060636  0.91087030  0.09516121    -0.82100
O1872       O  0.99340621  0.56914120  0.04449613    -0.77700
O1873       O  0.52454251  0.95388896  0.12439832    -0.89400
O1874       O  0.89068049  0.91975837  0.11177795    -0.75300
O1875       O  0.93976552  0.98974871  0.05875421    -0.84800
O1876       O  0.95686976  0.93088252  0.07067370    -0.84500
O1877       O  0.51476912  0.52210701  0.02921201    -0.71300
O1878       O  0.53198334  0.96589210  0.04387655    -0.83400
Zr1879     Zr  0.97360893  0.95405694  0.42401101     2.26400
Zr1880     Zr  0.96934383  0.52443911  0.99051147     2.06300
Zr1881     Zr  0.99562285  0.91362928  0.02375883     2.10000
Zr1882     Zr  0.90816815  0.93381514  0.03472187     1.78800
O1883       O  0.54091414  0.89425025  0.49427616    -0.92200
O1884       O  0.87049490  0.96456511  0.05182714    -0.40000
O1885       O  0.94881125  0.91920179  0.48746515    -0.76600
O1886       O  0.93287826  0.96825335  0.47316019    -0.95300
O1887       O  0.00813863  0.51092109  0.44322633    -0.88600
O1888       O  0.02041801  0.94708660  0.46027392    -0.91500
C1889       C  0.90716655  0.93369928  0.14611278     1.02300
C1890       C  0.53289615  0.92833606  0.12024738     1.15200
C1891       C  0.50700234  0.57578208  0.08047981     1.06000
O1892       O  0.91778437  0.53545591  0.01569976    -0.93600
O1893       O  0.94178211  0.52979969  0.42143302    -0.89400
O1894       O  0.94472795  0.48636013  0.37993138    -0.82500
C1895       C  0.93685876  0.51217361  0.38569410     1.12600
O1896       O  0.59923791  0.53320813  0.03632376    -0.95600
Zr1897     Zr  0.55519901  0.00197187  0.48429790     1.88900
O1898       O  0.02268746  0.98903088  0.37165667    -0.72300
O1899       O  0.48159770  0.57707004  0.46296867    -0.51500
O1900       O  0.58613689  0.55889266  0.46758040    -0.96200
O1901       O  0.59895228  0.97726624  0.47251454    -0.53400
O1902       O  0.56958477  0.51141843  0.40219614    -0.72800
C1903       C  0.55709257  0.00794077  0.37186212     0.99600
O1904       O  0.93855909  0.92003695  0.36493069    -0.61600
O1905       O  0.96651412  0.85782684  0.05331732    -0.56400
O1906       O  0.97647464  0.89962681  0.40898833    -0.93100
O1907       O  0.96316909  0.86978276  0.47045828    -0.91500
O1908       O  0.87365141  0.87451296  0.04297102    -0.91900
O1909       O  0.85907408  0.90853624  0.48990564    -0.90600
C1910       C  0.95818214  0.87309499  0.42993269     1.18400
H1911       H  0.94955163  0.91569519  0.09490081     0.34400
H1912       H  0.91297468  0.96806102  0.45781159     0.45200
H1913       H  0.53488556  0.93880591  0.44004219     0.38700
H1914       H  0.53126860  0.54258666  0.03604978     0.35200
H1915       H  0.86300347  0.96860216  0.02300038     0.27000
H1916       H  0.47030670  0.58905876  0.48261009     0.32900
H1917       H  0.56991970  0.56679518  0.45313357     0.38800
H1918       H  0.89130241  0.86421740  0.04162123     0.33300
H1919       H  0.98564292  0.85135609  0.06238741     0.32200
H1920       H  0.52841855  0.87097814  0.48407797     0.33900
H1921       H  0.59797816  0.97039052  0.44115057     0.32800
H1922       H  0.86873758  0.91324550  0.45931640     0.36800
H1923       H  0.91450913  0.91945466  0.37103911     0.29600
H1924       H  0.50304672  0.52535457  0.17658384     0.33800
H1925       H  0.58642409  0.53634292  0.06344517     0.36600
H1926       H  0.95442905  0.86075796  0.08114844     0.29300
H1927       H  0.94725555  0.93326443  0.33792989     0.42100
H1928       H  0.89957597  0.52302064  0.99471464     0.32200
H1929       H  0.84895101  0.94825762  0.06621205     0.39800
H1930       H  0.58933738  0.95618477  0.48886488     0.31700
H1931       H  0.51874938  0.58750404  0.96416232     0.31700
H1932       H  0.53998664  0.53133601  0.15286596     0.32000
C1933       C  0.85336049  0.50417133  0.37958782    -0.11300
C1934       C  0.87122191  0.53534922  0.35932873     0.05700
C1935       C  0.84955428  0.55195641  0.34585031    -0.06600
C1936       C  0.81329012  0.03235886  0.35915346    -0.07300
C1937       C  0.79759844  0.99969255  0.37407763    -0.01900
C1938       C  0.81648970  0.48788839  0.37990798     0.04900
N1939       N  0.79977560  0.45836597  0.40512660     0.67400
H1940       H  0.86794922  0.49155503  0.39424408     0.16300
H1941       H  0.79707126  0.04411674  0.34619620     0.16000
N1942       N  0.86252547  0.08462101  0.34885069     0.75100
O1943       O  0.81099756  0.43517258  0.40125500    -0.38300
O1944       O  0.78088110  0.45940382  0.43871770    -0.38300
O1945       O  0.85193117  0.09350600  0.31528061    -0.39000
O1946       O  0.87405609  0.10558258  0.37964548    -0.39000
C1947       C  0.91969594  0.60263166  0.25322727    -0.11300
C1948       C  0.92758627  0.59543914  0.29486232     0.05700
C1949       C  0.94627188  0.62195468  0.32327914    -0.06600
C1950       C  0.95721824  0.65490634  0.30923719    -0.07300
C1951       C  0.95061739  0.66210726  0.26678527    -0.01900
C1952       C  0.92993963  0.63555603  0.23955172     0.04900
N1953       N  0.91699994  0.64157223  0.19949196     0.67400
H1954       H  0.90479360  0.58239574  0.23153061     0.16300
H1955       H  0.97269751  0.67494422  0.33078799     0.16000
N1956       N  0.95685692  0.61581576  0.36488859     0.75100
O1957       O  0.92105746  0.62665664  0.16459206    -0.38300
O1958       O  0.89395231  0.65404831  0.20150082    -0.38300
O1959       O  0.98709431  0.61550616  0.36781002    -0.39000
O1960       O  0.93956233  0.61791689  0.39952241    -0.39000
C1961       C  0.60186685  0.91633935  0.27853016    -0.11300
C1962       C  0.61114998  0.91367029  0.23385879     0.05700
C1963       C  0.64533754  0.91532826  0.22207117    -0.06600
C1964       C  0.66992015  0.92199532  0.25446399    -0.07300
C1965       C  0.66227709  0.92928098  0.29828535    -0.01900
C1966       C  0.62712416  0.92429591  0.31105641     0.04900
N1967       N  0.61708520  0.92863594  0.35607163     0.67400
H1968       H  0.57578336  0.91556165  0.28745211     0.16300
H1969       H  0.69664683  0.92567010  0.24392902     0.16000
N1970       N  0.65771585  0.91764757  0.17676977     0.75100
O1971       O  0.59230300  0.93835058  0.36504974    -0.38300
O1972       O  0.63141635  0.92084879  0.38703777    -0.38300
O1973       O  0.68314902  0.94332104  0.16366522    -0.39000
O1974       O  0.64328268  0.89445810  0.14958279    -0.39000
C1975       C  0.98511469  0.82135009  0.20757898    -0.11300
C1976       C  0.50810716  0.80300421  0.21445712     0.05700
C1977       C  0.54449263  0.81672270  0.20219778    -0.06600
C1978       C  0.56058896  0.84937251  0.18708288    -0.07300
C1979       C  0.54275365  0.87090253  0.18555981    -0.01900
C1980       C  0.00091791  0.85572011  0.19709264     0.04900
N1981       N  0.97995685  0.87524835  0.19939752     0.67400
H1982       H  0.95718460  0.81051124  0.21575564     0.16300
H1983       H  0.58822173  0.85848958  0.17871686     0.16000
N1984       N  0.56650016  0.79860757  0.20724067     0.75100
O1985       O  0.96478945  0.87752358  0.16561758    -0.38300
O1986       O  0.98267099  0.89542580  0.23113150    -0.38300
O1987       O  0.58083827  0.79062243  0.17349858    -0.39000
O1988       O  0.57855206  0.79844447  0.24436120    -0.39000
C1989       C  0.53398428  0.64944442  0.18917237    -0.11300
C1990       C  0.52698030  0.64275487  0.14456814     0.05700
C1991       C  0.00605118  0.65440538  0.12119524    -0.06600
C1992       C  0.99379555  0.67649433  0.14464224    -0.07300
C1993       C  0.50285888  0.68701841  0.19301845    -0.01900
C1994       C  0.52342577  0.67242658  0.21294633     0.04900
N1995       N  0.53775391  0.68418048  0.25486121     0.67400
H1996       H  0.55087693  0.63937100  0.20410071     0.16300
H1997       H  0.97875704  0.68781763  0.12799242     0.16000
N1998       N  0.00037371  0.64929007  0.07524119     0.75100
O1999       O  0.52961218  0.66460112  0.28678082    -0.38300
O2000       O  0.56381617  0.71149550  0.25734768    -0.38300
O2001       O  0.97149655  0.62827731  0.06253979    -0.39000
O2002       O  0.02106394  0.66981023  0.04824737    -0.39000
C2003       C  0.65605075  0.71738567  0.16612228    -0.11300
C2004       C  0.67249887  0.69822894  0.18521332     0.05700
C2005       C  0.65538286  0.66278846  0.18081753    -0.06600
C2006       C  0.62188232  0.64857225  0.16396678    -0.07300
C2007       C  0.60859072  0.66757705  0.14067271    -0.01900
C2008       C  0.62634551  0.70232236  0.14073306     0.04900
N2009       N  0.61702266  0.72215213  0.11148014     0.67400
H2010       H  0.66745578  0.74429218  0.16799655     0.16300
H2011       H  0.60919763  0.62165610  0.16139555     0.16000
N2012       N  0.67352268  0.64086257  0.18382263     0.75100
O2013       O  0.60060756  0.73978374  0.12613302    -0.38300
O2014       O  0.63033384  0.72634244  0.07276724    -0.38300
O2015       O  0.65675099  0.61178815  0.19793415    -0.39000
O2016       O  0.70031605  0.64578704  0.15876398    -0.39000
C2017       C  0.67570993  0.61208998  0.28824077    -0.11300
C2018       C  0.63996873  0.60741952  0.29587784     0.05700
C2019       C  0.63216019  0.63645616  0.29587624    -0.06600
C2020       C  0.65767865  0.66735301  0.28198994    -0.07300
C2021       C  0.69196731  0.67092736  0.26807860    -0.01900
C2022       C  0.70145914  0.64325003  0.27408618     0.04900
N2023       N  0.73595835  0.64511776  0.26069758     0.67400
H2024       H  0.68342707  0.59109908  0.28902660     0.16300
H2025       H  0.65008875  0.68847644  0.28011610     0.16000
N2026       N  0.59752260  0.63465414  0.30773725     0.75100
O2027       O  0.75643965  0.64342711  0.28888918    -0.38300
O2028       O  0.74667427  0.65000415  0.22099042    -0.38300
O2029       O  0.58254352  0.62210478  0.34377277    -0.39000
O2030       O  0.58023583  0.64147084  0.27952155    -0.39000
C2031       C  0.65206881  0.02349755  0.29745641    -0.11300
C2032       C  0.63329879  0.53494709  0.32906409     0.05700
C2033       C  0.64618653  0.53117875  0.36951108    -0.06600
C2034       C  0.66620461  0.51132356  0.37082893    -0.07300
C2035       C  0.68039947  0.99766414  0.34296524    -0.01900
C2036       C  0.67579387  0.00801441  0.30138688     0.04900
N2037       N  0.70060239  0.00999691  0.26583863     0.67400
H2038       H  0.64639049  0.02905429  0.26506812     0.16300
H2039       H  0.67420931  0.50605440  0.40200672     0.16000
N2040       N  0.64250943  0.55025809  0.40758027     0.75100
O2041       O  0.69161640  0.99090716  0.23278971    -0.38300
O2042       O  0.72908310  0.03520816  0.26364083    -0.38300
O2043       O  0.64970137  0.54372632  0.44497310    -0.39000
O2044       O  0.63877894  0.57739422  0.40272779    -0.39000
C2045       C  0.78324913  0.91044890  0.32833387    -0.11300
C2046       C  0.77910321  0.93937181  0.31648781     0.05700
C2047       C  0.79870016  0.95769939  0.28005414    -0.06600
C2048       C  0.82356537  0.94782808  0.25785831    -0.07300
C2049       C  0.82876770  0.91967287  0.27095144    -0.01900
C2050       C  0.80850570  0.90093110  0.30627549     0.04900
N2051       N  0.81378414  0.87262627  0.32063136     0.67400
H2052       H  0.76735779  0.89568809  0.35534582     0.16300
H2053       H  0.83900967  0.96222761  0.23029825     0.16000
N2054       N  0.79236569  0.98523873  0.26386012     0.75100
O2055       O  0.79097759  0.84407440  0.31293610    -0.38300
O2056       O  0.83513537  0.87647999  0.35031849    -0.38300
O2057       O  0.82057466  0.51671835  0.24553596    -0.39000
O2058       O  0.76562226  0.97965401  0.24180300    -0.39000
C2059       C  0.79625319  0.86349802  0.20188850    -0.11300
C2060       C  0.83238333  0.87217449  0.19064606     0.05700
C2061       C  0.84230518  0.84569135  0.17574362    -0.06300
C2062       C  0.81785136  0.81218381  0.17753400    -0.07300
C2063       C  0.78407853  0.80345162  0.19779563    -0.01900
C2064       C  0.77250018  0.82989976  0.20628602     0.04900
N2065       N  0.73688184  0.82333905  0.22017686     0.67400
H2066       H  0.78673675  0.88295096  0.21061482     0.16300
H2067       H  0.82621649  0.79270566  0.16542936     0.16000
N2068       N  0.87815019  0.85168371  0.16468777     0.75100
O2069       O  0.72956125  0.82749501  0.26013172    -0.38300
O2070       O  0.71544074  0.82254409  0.19175888    -0.38300
O2071       O  0.89904304  0.85696237  0.19533197    -0.39000
O2072       O  0.88683640  0.84413260  0.12671817    -0.39000
C2073       C  0.86231555  0.80650757  0.29637841    -0.11300
C2074       C  0.85175672  0.80987663  0.34050521     0.05700
C2075       C  0.81548628  0.79364222  0.35254099    -0.06600
C2076       C  0.79119901  0.77772943  0.32087813    -0.07300
C2077       C  0.80153811  0.77324614  0.27752358    -0.01900
C2078       C  0.83823038  0.78555250  0.26599195     0.04900
N2079       N  0.85176795  0.77442894  0.22658829     0.67400
H2080       H  0.88982234  0.81835382  0.28637032     0.16300
H2081       H  0.76356496  0.76715349  0.33108793     0.16000
N2082       N  0.80253415  0.79079868  0.39728647     0.75100
O2083       O  0.88370222  0.78869905  0.21428083    -0.38300
O2084       O  0.83347880  0.74749625  0.20762421    -0.38300
O2085       O  0.78072828  0.80363101  0.40943235    -0.39000
O2086       O  0.80544338  0.76870116  0.42058465    -0.39000
C2087       C  0.90940867  0.78161510  0.34501410    -0.11300
C2088       C  0.92974749  0.81534826  0.35259010     0.05700
C2089       C  0.96491947  0.82795698  0.33485050    -0.06600
C2090       C  0.97702365  0.80759395  0.30727435    -0.07300
C2091       C  0.95439385  0.77561448  0.29409015    -0.01900
C2092       C  0.91997445  0.76257541  0.31416672     0.04900
N2093       N  0.89464355  0.73031862  0.30301060     0.67400
H2094       H  0.88349292  0.77042302  0.36080165     0.16300
H2095       H  0.00430135  0.81722136  0.29563844     0.16000
N2096       N  0.98925098  0.86074196  0.34442779     0.75100
O2097       O  0.87902081  0.72621415  0.26752989    -0.38300
O2098       O  0.88236483  0.70860466  0.33240494    -0.38300
O2099       O  0.01540369  0.86420291  0.36668490    -0.39000
O2100       O  0.99051972  0.88438237  0.32076049    -0.39000
N2101       N  0.91502157  0.83692405  0.87562624    -0.02500
C2102       C  0.92423565  0.85534440  0.91353318     0.00100
C2103       C  0.89625155  0.86121349  0.93254404    -0.22800
C2104       C  0.86891010  0.84699543  0.90620774    -0.23000
C2105       C  0.88004160  0.83134157  0.87172687     0.00000
H2106       H  0.89604520  0.87583311  0.96166563     0.13800
H2107       H  0.84373360  0.84868983  0.91240859     0.13800
N2108       N  0.85897240  0.90405044  0.70581876    -0.02500
C2109       C  0.89335872  0.92275593  0.69294691     0.00100
C2110       C  0.91195800  0.93925413  0.72902919    -0.22800
C2111       C  0.88879212  0.93269488  0.76426942    -0.23000
C2112       C  0.85653552  0.91259447  0.74904403     0.00000
H2113       H  0.93876101  0.95734903  0.72894101     0.13800
H2114       H  0.89375438  0.94570304  0.79573033     0.13800
N2115       N  0.60948054  0.54993254  0.83073120    -0.02500
C2116       C  0.57430627  0.53001549  0.83347874     0.00100
C2117       C  0.55696997  0.54075871  0.80378537    -0.22800
C2118       C  0.58165886  0.56860159  0.78392306    -0.23000
C2119       C  0.61374312  0.57487108  0.80222675     0.00000
H2120       H  0.52888678  0.53150058  0.80000860     0.13800
H2121       H  0.57610336  0.58403922  0.76082432     0.13800
C2122       C  0.77892721  0.75117869  0.74384371     0.03200
C2123       C  0.76810714  0.76543415  0.70894716     0.03200
C2124       C  0.73579820  0.74576488  0.68989993    -0.17300
C2125       C  0.71248800  0.71391963  0.70654445     0.03200
C2126       C  0.72303309  0.70087837  0.74335599     0.03200
C2127       C  0.75667816  0.71912785  0.75943403    -0.17300
H2128       H  0.76441757  0.70968635  0.78780553     0.05300
H2129       H  0.72868516  0.75605486  0.66196057     0.05300
N2130       N  0.55239377  0.62622923  0.61875970    -0.02500
C2131       C  0.54372648  0.60234813  0.58626406     0.00100
C2132       C  0.57288731  0.60701601  0.55862929    -0.22800
C2133       C  0.60009113  0.63397803  0.57404825    -0.23000
C2134       C  0.58705803  0.64545714  0.61082097     0.00000
H2135       H  0.57496873  0.59114282  0.53162033     0.13800
H2136       H  0.62732769  0.64218771  0.56244951     0.13800
N2137       N  0.55886622  0.90638234  0.68098905    -0.02500
C2138       C  0.55486298  0.93102664  0.65719077     0.00100
C2139       C  0.57939927  0.96195420  0.66898568    -0.22800
C2140       C  0.59879289  0.95727241  0.70038751    -0.23000
C2141       C  0.58632251  0.92360898  0.70713496     0.00000
H2142       H  0.58291146  0.98588880  0.65586245     0.13800
H2143       H  0.62013213  0.97646883  0.71650140     0.13800
N2144       N  0.90971431  0.54585093  0.84532107    -0.02500
C2145       C  0.92685982  0.52425869  0.84578978     0.00100
C2146       C  0.94345365  0.52293524  0.80561680    -0.22800
C2147       C  0.93990090  0.54632286  0.78030721    -0.23000
C2148       C  0.92122988  0.56133290  0.80564196     0.00000
H2149       H  0.96054043  0.50969542  0.79763826     0.13800
H2150       H  0.95424618  0.55507389  0.74940525     0.13800
C2151       C  0.99353007  0.76771833  0.72850800     0.03200
C2152       C  0.97276105  0.75656590  0.76857781     0.03200
C2153       C  0.96396970  0.72347377  0.78171631    -0.17300
C2154       C  0.97033171  0.69964853  0.75490853     0.03200
C2155       C  0.99107277  0.71014159  0.71576786     0.03200
C2156       C  0.50019052  0.74057477  0.69857065    -0.17300
H2157       H  0.51483819  0.74725551  0.66749240     0.05300
H2158       H  0.95132897  0.71568576  0.81369129     0.05300
C2159       C  0.75947344  0.98049811  0.85650035     0.03200
C2160       C  0.74988400  0.94919604  0.83478853     0.03200
C2161       C  0.71521709  0.93107565  0.82397393    -0.17300
C2162       C  0.69073651  0.94603742  0.82487886     0.03200
C2163       C  0.70060594  0.97891345  0.84339046     0.03200
C2164       C  0.73396574  0.99458815  0.86157880    -0.17300
H2165       H  0.74038128  0.52042489  0.87706067     0.05300
H2166       H  0.70881951  0.90685466  0.80802704     0.05300
Zr2167     Zr  0.99065554  0.98574041  0.59522651     2.17500
O2168       O  0.51647524  0.50375123  0.66202730    -0.50400
O2169       O  0.93979741  0.95750437  0.64600803    -0.73600
O2170       O  0.51123794  0.54535263  0.60411980    -0.80400
O2171       O  0.02379909  0.91063485  0.59361202    -0.82100
O2172       O  0.99251066  0.57265000  0.54402461    -0.77700
O2173       O  0.52188607  0.95679335  0.62632287    -0.89400
O2174       O  0.89226779  0.91998673  0.61357213    -0.75300
O2175       O  0.94169853  0.98931984  0.56093268    -0.84800
O2176       O  0.95789015  0.92994956  0.57168580    -0.84500
O2177       O  0.51564195  0.51728756  0.52670296    -0.71300
O2178       O  0.52929726  0.96755403  0.54688890    -0.83400
Zr2179     Zr  0.97392843  0.95481493  0.92334859     2.26400
Zr2180     Zr  0.96873204  0.52723704  0.49061213     2.06300
Zr2181     Zr  0.99579439  0.91231199  0.52390734     2.10000
Zr2182     Zr  0.90921937  0.93360183  0.53646667     1.78800
O2183       O  0.54575489  0.89598151  0.99038488    -0.92200
O2184       O  0.87112705  0.96385282  0.55381389    -0.40000
O2185       O  0.94887980  0.92025246  0.98674094    -0.76600
O2186       O  0.93210688  0.96828436  0.97129307    -0.95300
O2187       O  0.00820398  0.50847236  0.94149752    -0.88600
O2188       O  0.02078337  0.94887908  0.96075953    -0.91500
C2189       C  0.90894974  0.93373456  0.64781026     1.02300
C2190       C  0.52980138  0.93087894  0.62368443     1.15200
C2191       C  0.51228621  0.57070946  0.58206991     1.06000
O2192       O  0.91923246  0.54245700  0.51292906    -0.93600
O2193       O  0.94359439  0.52887150  0.92096554    -0.89400
O2194       O  0.94505628  0.48553133  0.87798922    -0.82500
C2195       C  0.93810797  0.51177919  0.88475829     1.12600
O2196       O  0.60079863  0.52739612  0.52721921    -0.95600
Zr2197     Zr  0.55656767  0.00065756  0.98109659     1.88900
O2198       O  0.02347259  0.98840583  0.87127087    -0.72300
O2199       O  0.49446378  0.57785481  0.95389147    -0.51500
O2200       O  0.58731138  0.56305687  0.97207605    -0.96200
O2201       O  0.59543990  0.97093524  0.96545825    -0.53400
O2202       O  0.57188045  0.51514590  0.90820184    -0.72800
C2203       C  0.55724811  0.00885567  0.86916368     0.99600
O2204       O  0.93963909  0.92082979  0.86368889    -0.61600
O2205       O  0.96648500  0.85975939  0.56191373    -0.56400
O2206       O  0.97852094  0.90105344  0.91020053    -0.93100
O2207       O  0.96301123  0.87077698  0.97093385    -0.91500
O2208       O  0.87297510  0.87470866  0.54504869    -0.91900
O2209       O  0.85937524  0.90940886  0.98592521    -0.90600
C2210       C  0.95913388  0.87452072  0.93024669     1.18400
H2211       H  0.95058179  0.91468506  0.59585467     0.34400
H2212       H  0.91219661  0.96744681  0.95537912     0.45200
H2213       H  0.53568015  0.93827171  0.93523163     0.38700
H2214       H  0.53433629  0.53910222  0.53390314     0.35200
H2215       H  0.86263381  0.96689239  0.52515812     0.27000
H2216       H  0.48318586  0.59283446  0.96628869     0.32900
H2217       H  0.57272220  0.56990591  0.95293968     0.38800
H2218       H  0.88998174  0.86384424  0.54639152     0.33300
H2219       H  0.94199229  0.85095144  0.55236628     0.32200
H2220       H  0.54007274  0.87334928  0.00162197     0.33900
H2221       H  0.59941629  0.96382762  0.99448449     0.32800
H2222       H  0.83779486  0.90544951  0.00461161     0.36800
H2223       H  0.91550028  0.92014101  0.86928058     0.29600
H2224       H  0.50234994  0.51561565  0.67619660     0.33800
H2225       H  0.58923712  0.52779127  0.55647259     0.36600
H2226       H  0.97690266  0.84454730  0.54806982     0.29300
H2227       H  0.94859103  0.93407319  0.83673742     0.42100
H2228       H  0.91978404  0.54472481  0.54536626     0.32200
H2229       H  0.85016372  0.94756784  0.56929303     0.39800
H2230       H  0.61833087  0.98819207  0.95613223     0.31700
H2231       H  0.50714223  0.58884897  0.46675425     0.31700
H2232       H  0.54017159  0.52110595  0.65602979     0.32000
C2233       C  0.85573267  0.50523253  0.88379133    -0.11300
C2234       C  0.87263115  0.53571244  0.86155563     0.05700
C2235       C  0.85020667  0.55190458  0.84932840    -0.06600
C2236       C  0.81371837  0.03240652  0.84802502    -0.07300
C2237       C  0.79726544  0.00080855  0.86606180    -0.01900
C2238       C  0.81882784  0.48935162  0.88808702     0.04900
N2239       N  0.80370151  0.46071471  0.91526755     0.67400
H2240       H  0.87097352  0.49286359  0.89739056     0.16300
H2241       H  0.79790781  0.04385085  0.83329159     0.16000
N2242       N  0.86382297  0.08299729  0.83264305     0.75100
O2243       O  0.81422900  0.43710932  0.91029607    -0.38300
O2244       O  0.78749200  0.46307856  0.95076660    -0.38300
O2245       O  0.85436056  0.08944057  0.79653810    -0.39000
O2246       O  0.87468989  0.10600378  0.86116077    -0.39000
C2247       C  0.92115324  0.60498939  0.75560962    -0.11300
C2248       C  0.92924944  0.59691064  0.79665676     0.05700
C2249       C  0.94969779  0.62286745  0.82466573    -0.06600
C2250       C  0.96175631  0.65605331  0.81108058    -0.07300
C2251       C  0.95480994  0.66408104  0.76922858    -0.01900
C2252       C  0.93278589  0.63814596  0.74223392     0.04900
N2253       N  0.91999586  0.64507656  0.70264301     0.67400
H2254       H  0.90523170  0.58525854  0.73396460     0.16300
H2255       H  0.97826806  0.67557856  0.83250492     0.16000
N2256       N  0.96085308  0.61582193  0.86533680     0.75100
O2257       O  0.92452383  0.63115319  0.66707605    -0.38300
O2258       O  0.89646860  0.65696136  0.70546239    -0.38300
O2259       O  0.98998157  0.61274615  0.86616596    -0.39000
O2260       O  0.94585753  0.61995958  0.90097348    -0.39000
C2261       C  0.59763227  0.91510822  0.78341970    -0.11300
C2262       C  0.60446322  0.91111438  0.73820823     0.05700
C2263       C  0.63751791  0.91071642  0.72440585    -0.06600
C2264       C  0.66447542  0.92000424  0.75406229    -0.07300
C2265       C  0.65919776  0.92927285  0.79779080    -0.01900
C2266       C  0.62460362  0.92321193  0.81344697     0.04900
N2267       N  0.61656088  0.92429699  0.85953928     0.67400
H2268       H  0.57208343  0.91455425  0.79483911     0.16300
H2269       H  0.69056883  0.92291936  0.74157221     0.16000
N2270       N  0.64566927  0.90526024  0.67919435     0.75100
O2271       O  0.60300714  0.94412916  0.87488463    -0.38300
O2272       O  0.61821549  0.90208278  0.88378856    -0.38300
O2273       O  0.64808390  0.92650162  0.65077441    -0.39000
O2274       O  0.65557148  0.88178614  0.66886294    -0.39000
C2275       C  0.98954085  0.82364883  0.71039119    -0.11300
C2276       C  0.50777912  0.80126737  0.70798865     0.05700
C2277       C  0.54333717  0.81601446  0.69158442    -0.06600
C2278       C  0.55796865  0.84942221  0.67849083    -0.07300
C2279       C  0.53936653  0.87035942  0.68269549    -0.01900
C2280       C  0.00546400  0.85786686  0.69899397     0.04900
N2281       N  0.98434782  0.87715818  0.69848916     0.67400
H2282       H  0.96154605  0.81283122  0.71807021     0.16300
H2283       H  0.58512393  0.85968684  0.66694206     0.16000
N2284       N  0.56621918  0.79830445  0.69029553     0.75100
O2285       O  0.96735601  0.87583177  0.66486322    -0.38300
O2286       O  0.98837307  0.90017675  0.72667750    -0.38300
O2287       O  0.57767463  0.79148943  0.65349525    -0.39000
O2288       O  0.58191012  0.79766228  0.72442094    -0.39000
C2289       C  0.53709735  0.64794202  0.68843282    -0.11300
C2290       C  0.52985391  0.63916055  0.64424770     0.05700
C2291       C  0.00965882  0.65919077  0.62120979    -0.06600
C2292       C  0.99703021  0.68038811  0.64589700    -0.07300
C2293       C  0.50503184  0.68473577  0.68891290    -0.01900
C2294       C  0.52622765  0.67148802  0.71019316     0.04900
N2295       N  0.54061084  0.68483619  0.75159415     0.67400
H2296       H  0.55438023  0.63898737  0.70465827     0.16300
H2297       H  0.98222816  0.69232904  0.62997696     0.16000
N2298       N  0.00588959  0.65679408  0.57475067     0.75100
O2299       O  0.53355859  0.66606062  0.78429050    -0.38300
O2300       O  0.56651351  0.71236343  0.75257223    -0.38300
O2301       O  0.97677016  0.63866673  0.55935643    -0.39000
O2302       O  0.02929896  0.67713401  0.55005917    -0.39000
C2303       C  0.65996352  0.71488808  0.66733517    -0.11300
C2304       C  0.67690214  0.69601149  0.68604822     0.05700
C2305       C  0.65927823  0.66054305  0.68341570    -0.06600
C2306       C  0.62502595  0.64623785  0.66890840    -0.07300
C2307       C  0.61160398  0.66465743  0.64465542    -0.01900
C2308       C  0.62947089  0.69938670  0.64338508     0.04900
N2309       N  0.61932874  0.71869355  0.61424702     0.67400
H2310       H  0.67155760  0.74180357  0.66816299     0.16300
H2311       H  0.61205948  0.61929931  0.66766989     0.16000
N2312       N  0.67744169  0.63851635  0.68506611     0.75100
O2313       O  0.60178004  0.73527297  0.62898147    -0.38300
O2314       O  0.63283197  0.72353984  0.57565154    -0.38300
O2315       O  0.66104494  0.60946364  0.69946358    -0.39000
O2316       O  0.70357826  0.64338638  0.65884614    -0.39000
C2317       C  0.68007872  0.61127974  0.78942836    -0.11300
C2318       C  0.64497880  0.60835710  0.79846331     0.05700
C2319       C  0.63881030  0.63828159  0.79864174    -0.06600
C2320       C  0.66512421  0.66832901  0.78366457    -0.07300
C2321       C  0.69846725  0.67010947  0.76814239    -0.01900
C2322       C  0.70661966  0.64164826  0.77412903     0.04900
N2323       N  0.74026185  0.64184555  0.75949395     0.67400
H2324       H  0.68645130  0.58945309  0.78989417     0.16300
H2325       H  0.65877114  0.69019374  0.78194460     0.16000
N2326       N  0.60502426  0.63829325  0.81175671     0.75100
O2327       O  0.76184354  0.64163245  0.78709632    -0.38300
O2328       O  0.74922882  0.64393721  0.71910971    -0.38300
O2329       O  0.59006772  0.62583984  0.84784507    -0.39000
O2330       O  0.58876599  0.64809512  0.78529797    -0.39000
C2331       C  0.65096564  0.02529555  0.79318564    -0.11300
C2332       C  0.63569141  0.53611073  0.83447605     0.05700
C2333       C  0.64922542  0.53440660  0.87523824    -0.06600
C2334       C  0.66817065  0.51377232  0.87875015    -0.07300
C2335       C  0.67948404  0.99956116  0.83877942    -0.01900
C2336       C  0.67401552  0.00894087  0.79698705     0.04900
N2337       N  0.69690990  0.00806335  0.76031383     0.67400
H2338       H  0.64461703  0.03026271  0.76086061     0.16300
H2339       H  0.67681862  0.51035939  0.91047296     0.16000
N2340       N  0.64648672  0.55556268  0.91147713     0.75100
O2341       O  0.68499599  0.99039922  0.72669535    -0.38300
O2342       O  0.72832376  0.02884849  0.75910887    -0.38300
O2343       O  0.65403435  0.55084145  0.94955712    -0.39000
O2344       O  0.64246647  0.58225501  0.90427014    -0.39000
C2345       C  0.78098205  0.91073163  0.82598447    -0.11300
C2346       C  0.77621214  0.93879335  0.81189880     0.05700
C2347       C  0.79454334  0.95527361  0.77368840    -0.06600
C2348       C  0.81949441  0.94505644  0.75243689    -0.07300
C2349       C  0.82596854  0.91828871  0.76826271    -0.01900
C2350       C  0.80623865  0.90077387  0.80478129     0.04900
N2351       N  0.81237152  0.87360711  0.82158288     0.67400
H2352       H  0.76580164  0.89718582  0.85424836     0.16300
H2353       H  0.83439138  0.95843143  0.72388825     0.16000
N2354       N  0.78711903  0.98147359  0.75519535     0.75100
O2355       O  0.78957961  0.84457778  0.81677332    -0.38300
O2356       O  0.83446736  0.87940004  0.85083663    -0.38300
O2357       O  0.80592722  0.51423563  0.75503893    -0.39000
O2358       O  0.76038242  0.97412789  0.73254339    -0.39000
C2359       C  0.79820613  0.86105404  0.69885501    -0.11300
C2360       C  0.83484669  0.87117649  0.69006092     0.05700
C2361       C  0.84679484  0.84566956  0.67682251    -0.06300
C2362       C  0.82349087  0.81171912  0.67740985    -0.07300
C2363       C  0.78875963  0.80158591  0.69506593    -0.01900
C2364       C  0.77553506  0.82702971  0.70234526     0.04900
N2365       N  0.73943753  0.81902767  0.71508830     0.67400
H2366       H  0.78733669  0.87968389  0.70665068     0.16300
H2367       H  0.83337633  0.79300042  0.66653393     0.16000
N2368       N  0.88332192  0.85318809  0.66870784     0.75100
O2369       O  0.73016629  0.81697346  0.75537691    -0.38300
O2370       O  0.71918005  0.82213910  0.68757721    -0.38300
O2371       O  0.90292558  0.85962306  0.70094361    -0.39000
O2372       O  0.89436914  0.84664857  0.63151838    -0.39000
C2373       C  0.86723848  0.80574959  0.79450280    -0.11300
C2374       C  0.85521425  0.81037377  0.83757051     0.05700
C2375       C  0.81857167  0.79476441  0.84777971    -0.06600
C2376       C  0.79546771  0.77815829  0.81533347    -0.07300
C2377       C  0.80724462  0.77207505  0.77346114    -0.01900
C2378       C  0.84415460  0.78416761  0.76367742     0.04900
N2379       N  0.85878061  0.77298989  0.72522598     0.67400
H2380       H  0.89498461  0.81734365  0.78566002     0.16300
H2381       H  0.76753265  0.76796488  0.82403279     0.16000
N2382       N  0.80394914  0.79282384  0.89166726     0.75100
O2383       O  0.89050449  0.78841516  0.71278969    -0.38300
O2384       O  0.84140495  0.74568561  0.70639609    -0.38300
O2385       O  0.78263944  0.80673931  0.90122102    -0.39000
O2386       O  0.80391049  0.76983621  0.91574012    -0.39000
C2387       C  0.91350104  0.78305488  0.84847875    -0.11300
C2388       C  0.93289674  0.81716167  0.85412249     0.05700
C2389       C  0.96799941  0.83034865  0.83631657    -0.06600
C2390       C  0.98101080  0.80989987  0.81039841    -0.07300
C2391       C  0.95911590  0.77736465  0.79849295    -0.01900
C2392       C  0.92483004  0.76379034  0.81894953     0.04900
N2393       N  0.90017998  0.73095319  0.80895302     0.67400
H2394       H  0.88754844  0.77179550  0.86419171     0.16300
H2395       H  0.00820895  0.82003684  0.79849161     0.16000
N2396       N  0.99099764  0.86411560  0.84314635     0.75100
O2397       O  0.88310922  0.72601249  0.77453865    -0.38300
O2398       O  0.88950661  0.70956645  0.83890092    -0.38300
O2399       O  0.01895129  0.87015857  0.86295582    -0.39000
O2400       O  0.98869675  0.88631111  0.81950604    -0.39000
loop_ 
_geom_bond_atom_site_label_1 
_geom_bond_atom_site_label_2 
_geom_bond_distance 
_geom_bond_site_symmetry_2 
_ccdc_geom_bond_type 
N1            C5   1.377       .  A
N1            C2   1.367       .  A
N1          C288   1.455       .  S
C2            C3   1.372       .  A
C2          C110   1.464       .  S
C3            C4   1.352       .  A
C3            H6   1.076       .  S
C4            C5   1.382       .  A
C4            H7   1.078       .  S
C5          C274   1.505       .  S
N8           C12   1.366       .  A
N8            C9   1.385       .  A
N8          C260   1.482       .  S
C9           C10   1.387       .  A
C9           C89   1.503       .  S
C10          C11   1.357       .  A
C10          H13   1.083       .  S
C11          C12   1.376       .  A
C11          H14   1.083       .  S
C12         C249   1.463       .  S
N15          C19   1.372       .  A
N15          C16   1.380       .  A
N15         C232   1.441       .  S
C16          C17   1.382       .  A
C16         C703   1.523       .  S
C17          C18   1.381       .  A
C17          H20   1.082       .  S
C18          C19   1.389       .  A
C18          H21   1.082       .  S
C19         C218   1.539       .  S
C22          C23   1.421       .  A
C22          C27   1.423       .  A
C22         C277   1.488       .  S
C23          C24   1.422       .  A
C23         C263   1.543       .  S
C24          C25   1.447       .  A
C24          H29   1.080       .  S
C25          C26   1.437       .  A
C25         C204   1.532       .  S
C26          C27   1.411       .  A
C26         C221   1.530       .  S
C27          H28   1.085       .  S
N30          C34   1.364       .  A
N30          C31   1.365       .  A
N30         C190   1.443       .  S
C31          C32   1.383       .  A
C31          C91   1.489       .  S
C32          C33   1.364       .  A
C32          H35   1.079       .  S
C33          C34   1.376       .  A
C33          H36   1.083       .  S
C34         C207   1.478       .  S
N37          C41   1.374       .  A
N37          C38   1.387       .  A
N37         C179   1.464       .  S
C38          C39   1.385       .  A
C38          C90   1.496       .  S
C39          C40   1.350       .  A
C39          H42   1.083       .  S
C40          C41   1.372       .  A
C40          H43   1.080       .  S
C41         C162   1.481       .  S
N44          C48   1.370       .  A
N44          C45   1.373       .  A
N44         C134   1.478       .  S
C45          C46   1.380       .  A
C45          C95   1.480       .  S
C46          C47   1.355       .  A
C46          H49   1.083       .  S
C47          C48   1.379       .  A
C47          H50   1.083       .  S
C48         C148   1.476       .  S
C51          C52   1.438       .  A
C51        C1256   1.418       .  A
C51        C1376   1.516       .  S
C52          C53   1.408       .  A
C52         C291   1.501       .  S
C53          C54   1.391       .  A
C53          H58   1.081       .  S
C54          C55   1.409       .  A
C54         C151   1.491       .  S
C55        C1256   1.411       .  A
C55        C1393   1.487       .  S
C56        C1251   1.422       .  A
C56        C1255   1.414       .  A
C56          H57   1.082   1_655  S
C59          C60   1.411       .  A
C59          C64   1.407       .  A
C59         C137   1.507       .  S
C60          C61   1.394       .  A
C60         C246   1.460       .  S
C61          C62   1.395       .  A
C61          H66   1.086       .  S
C62          C63   1.432       .  A
C62         C165   1.505       .  S
C63          C64   1.416       .  A
C63         C235   1.486       .  S
C64         H665   1.084       .  S
H65         C664   1.084   1_545  S
Zr67         O69   2.485       .  S
Zr67       O1870   2.512       .  S
Zr67       O1273   2.409       .  S
Zr67         O75   2.381       .  S
Zr67         O76   2.385       .  S
Zr67       O1877   2.405       .  S
Zr67       O1278   2.429       .  S
Zr67       O1868   2.445       .  S
O68       Zr1867   2.445   1_445  S
O68         H124   0.990   1_455  S
O68         H132   0.991       .  S
O69          C89   1.299       .  A
O70       Zr1867   2.510   1_445  S
O70          C91   1.297       .  A
O71         Zr81   2.516       .  S
O71        C1290   1.294       .  A
O72         Zr80   2.437   1_554  S
O72        C1291   1.283       .  A
O73       Zr1267   2.434   1_455  S
O73          C90   1.288       .  A
O74         Zr82   2.436       .  S
O74          C89   1.278       .  A
O75         Zr82   2.388       .  S
O75        Zr680   2.416   1_554  S
O76         Zr81   2.400       .  S
O76         Zr82   2.392       .  S
O76         H111   0.965       .  S
O77       Zr1867   2.409   1_445  S
O77       Zr1280   2.408   1_454  S
O77        Zr997   2.373   1_554  S
O77         H114   0.948       .  S
O78       Zr1267   2.425   1_455  S
O78       Zr1281   2.398   1_455  S
O78        Zr397   2.408   1_554  S
Zr79         O98   2.522       .  S
Zr79        O106   2.439       .  S
Zr79        O694   2.437       .  S
Zr79         O85   2.421       .  S
Zr79         O86   2.431       .  S
Zr79         O88   2.396       .  S
Zr79        O687   2.358       .  S
Zr79        O104   2.441       .  S
Zr80        O393   2.454       .  S
Zr80        O675   2.409   1_546  S
Zr80       O1277   2.406   1_556  S
Zr80        O986   2.396   1_545  S
Zr80        O387   2.410       .  S
Zr80         O92   2.435   1_556  S
Zr80       O1599   2.438       .  S
Zr81        O407   2.453   1_554  S
Zr81       O1278   2.399       .  S
Zr81        O385   2.411   1_554  S
Zr81        O388   2.432   1_554  S
Zr81        O105   2.438       .  S
Zr81       O1583   2.434       .  S
Zr82        O385   2.391   1_554  S
Zr82        O386   2.413   1_554  S
Zr82        O108   2.434       .  S
Zr82         O84   2.437       .  S
Zr82        O409   2.442   1_554  S
O83       Zr1581   2.433   1_455  S
O83         H120   0.990       .  S
O84         H115   0.990       .  S
O84         H129   0.990       .  S
O85        Zr381   2.406       .  S
O85        Zr382   2.390       .  S
O86        Zr980   2.397       .  S
O86        Zr382   2.416       .  S
O86         H112   0.965       .  S
O87        Zr679   2.356   1_545  S
O87        Zr380   2.408       .  S
O87       Zr1897   2.387       .  S
O88        Zr381   2.425       .  S
O88       Zr1297   2.356       .  S
O88        H1313   0.966       .  S
C90        O1271   1.289       .  A
C91        O1272   1.285   1_455  A
O92         H128   0.990       .  S
O93        Zr380   2.456       .  S
O93          C95   1.287       .  A
O94        Zr679   2.429       .  S
O94          C95   1.285   1_565  A
O96        Zr997   2.435   1_554  S
O96         H125   0.990       .  S
Zr97        O702   2.428       .  S
Zr97        O977   2.374       .  S
Zr97        O378   2.416       .  S
Zr97       O1887   2.388       .  S
Zr97       O1288   2.355       .  S
Zr97        O101   2.438       .  S
Zr97        O996   2.434       .  S
Zr97        O700   2.430       .  S
O98        C1303   1.301       .  A
O99       Zr1580   2.438       .  S
O99         H116   0.990       .  S
O99         H431   0.990   1_655  S
O100       Zr697   2.429       .  S
O100        H117   0.991       .  S
O101        H121   0.989       .  S
O101        H130   0.988       .  S
O102       Zr697   2.425       .  S
O102        C703   1.277       .  A
C103        C616   1.515       .  S
C103       O1298   1.300       .  A
C103        O702   1.278       .  A
O104        H123   0.990       .  S
O104        H127   0.990       .  S
O105        H119   0.990       .  S
O105        H126   0.990       .  S
O106        C110   1.279       .  A
O107       Zr381   2.438       .  S
O107        C110   1.283       .  A
O108        H118   0.990       .  S
O109       Zr382   2.441       .  S
O109        H122   0.990       .  S
H113       O1288   0.966       .  S
H131        O399   0.990   1_455  S
C133        C134   1.416       .  A
C133        C138   1.407   1_545  A
C133        H140   1.079   1_545  S
C134        C135   1.432       .  A
C135        N742   1.428       .  S
C135        C736   1.409       .  A
C136        C137   1.392       .  A
C136        C735   1.406       .  A
C136        H141   1.084       .  S
C137        C738   1.411       .  A
C138        N139   1.431       .  S
C138        C737   1.412   1_565  A
N139        O143   1.262       .  A
N139        O144   1.262       .  A
N142        C735   1.425       .  S
N142        O146   1.262       .  A
N142        O145   1.263       .  A
C147        C148   1.399       .  A
C147        C152   1.398       .  A
C147        H154   1.084       .  S
C148        C149   1.411       .  A
C149        N156   1.430       .  S
C149        C150   1.402       .  A
C150        C151   1.405       .  A
C150        H155   1.084       .  S
C151        C152   1.414       .  A
C152        N153   1.431       .  S
N153        O157   1.262       .  A
N153        O158   1.262       .  A
N156        O160   1.262       .  A
N156        O159   1.262       .  A
C161        C162   1.409       .  A
C161        C166   1.412       .  A
C161        H168   1.083       .  S
C162        C163   1.412       .  A
C163        N170   1.433       .  S
C163        C164   1.399       .  A
C164        C165   1.409       .  A
C164        H169   1.083       .  S
C165        C166   1.407       .  A
C166        N167   1.428       .  S
N167        O171   1.260       .  A
N167        O172   1.263       .  A
N170        O174   1.262       .  A
N170        O173   1.262       .  A
C175        C180   1.411       .  A
C175       C1376   1.405       .  A
C175        H182   1.082       .  S
C176        C177   1.425       .  A
C176       C1375   1.422   1_455  A
C176       C1251   1.542   1_455  S
C177        N184   1.428       .  S
C177        C178   1.406       .  A
C178        C179   1.399       .  A
C178        H183   1.079       .  S
C179       C1380   1.411       .  A
C180        N181   1.419       .  S
C180       C1379   1.416       .  A
N181        O185   1.260       .  A
N181        O186   1.262       .  A
N184        O188   1.262       .  A
N184        O187   1.262       .  A
C189        C190   1.405       .  A
C189        C194   1.403       .  A
C189        H196   1.083       .  S
C190       C1391   1.415   1_455  A
C191        N198   1.427       .  S
C191        C192   1.402       .  A
C191       C1390   1.414       .  A
C192       C1393   1.399       .  A
C192        H197   1.084       .  S
C193        C194   1.413   1_655  A
C193       C1392   1.397       .  A
C193       C1255   1.488       .  S
C194        N195   1.430       .  S
N195        O199   1.261       .  A
N195        O200   1.262       .  A
N198        O202   1.262       .  A
N198        O201   1.262       .  A
C203        C204   1.417       .  A
C203        C208   1.406       .  A
C203        H210   1.080       .  S
C204        C205   1.435       .  A
C205        N212   1.429       .  S
C205        C206   1.399       .  A
C206        C207   1.387       .  A
C206        H211   1.085       .  S
C207        C208   1.403       .  A
C208        N209   1.426       .  S
N209        O213   1.260       .  A
N209        O214   1.262       .  A
N212        O216   1.260       .  A
N212        O215   1.264       .  A
C217        C218   1.419       .  A
C217        C222   1.430       .  A
C217        H224   1.078       .  S
C218        C219   1.421       .  A
C219        N226   1.430       .  S
C219        C220   1.413       .  A
C220        C221   1.404       .  A
C220        H225   1.084       .  S
C221        C222   1.424       .  A
C222        N223   1.433       .  S
N223        O227   1.261       .  A
N223        O228   1.261       .  A
N226        O230   1.260       .  A
N226        O229   1.263       .  A
C231        C236   1.400       .  A
C231        C832   1.407       .  A
C231        H238   1.083       .  S
C232        C233   1.408       .  A
C232        C831   1.405       .  A
C233        N240   1.439       .  S
C233        C234   1.412       .  A
C234        C835   1.407       .  A
C234        H239   1.083       .  S
C235        C236   1.407       .  A
C235        C834   1.407       .  A
C236        N237   1.431       .  S
N237        O241   1.259       .  A
N237        O242   1.262       .  A
N240        O244   1.263       .  A
N240        O243   1.262       .  A
C245        C246   1.393       .  A
C245        C250   1.393       .  A
C245        H252   1.083       .  S
C246        C247   1.410       .  A
C247        N254   1.431       .  S
C247        C248   1.390       .  A
C248        C249   1.399       .  A
C248        H253   1.084       .  S
C249        C250   1.403       .  A
C250        N251   1.419       .  S
N251        O255   1.260       .  A
N251        O256   1.260       .  A
N254        O258   1.261       .  A
N254        O857   1.262       .  A
O257        N854   1.262   1_545  A
C259        C260   1.417       .  A
C259        C264   1.422       .  A
C259        H266   1.080       .  S
C260        C261   1.414       .  A
C261        N268   1.417       .  S
C261        C262   1.421       .  A
C262        C263   1.410       .  A
C262        H267   1.079       .  S
C263        C264   1.418       .  A
C264        N265   1.427       .  S
N265        O269   1.262       .  A
N265        O270   1.262       .  A
N268        O272   1.261       .  A
N268        O271   1.259       .  A
C273        C274   1.411       .  A
C273        C278   1.417       .  A
C273        H280   1.082       .  S
C274        C275   1.418       .  A
C275        N282   1.429       .  S
C275        C276   1.385       .  A
C276        C277   1.392       .  A
C276        H281   1.085       .  S
C277        C278   1.423       .  A
C278        N279   1.442       .  S
N279        O283   1.263       .  A
N279        O284   1.262       .  A
N282        O286   1.261       .  A
N282        O285   1.263       .  A
C287        C288   1.401       .  A
C287        C292   1.393       .  A
C287        H294   1.083       .  S
C288        C289   1.420       .  A
C289        N296   1.424       .  S
C289        C290   1.406       .  A
C290        C291   1.403       .  A
C290        H295   1.083       .  S
C291        C292   1.422       .  A
C292        N293   1.432       .  S
N293        O297   1.261       .  A
N293        O298   1.263       .  A
N296        O300   1.261       .  A
N296        O299   1.263       .  A
N301        C305   1.378       .  A
N301        C302   1.365       .  A
N301        C588   1.448       .  S
C302        C303   1.371       .  A
C302        C410   1.469       .  S
C303        C304   1.353       .  A
C303        H306   1.073       .  S
C304        C305   1.384       .  A
C304        H307   1.076       .  S
C305        C574   1.513       .  S
N308        C312   1.361       .  A
N308        C309   1.375       .  A
N308        C560   1.475       .  S
C309        C310   1.387       .  A
C309        C389   1.493       .  S
C310        C311   1.360       .  A
C310        H313   1.083       .  S
C311        C312   1.376       .  A
C311        H314   1.083       .  S
C312        C549   1.461       .  S
N315        C319   1.366       .  A
N315        C316   1.376       .  A
N315        C532   1.438       .  S
C316        C317   1.382       .  A
C316       C1003   1.515       .  S
C317        C318   1.382       .  A
C317        H320   1.082       .  S
C318        C319   1.389       .  A
C318        H321   1.082       .  S
C319        C518   1.530       .  S
C322        C323   1.423       .  A
C322        C327   1.422       .  A
C322        C577   1.494       .  S
C323        C324   1.419       .  A
C323        C563   1.535       .  S
C324        C325   1.440       .  A
C324        H329   1.081       .  S
C325        C326   1.436       .  A
C325        C504   1.528       .  S
C326        C327   1.412       .  A
C326        C521   1.526       .  S
C327        H328   1.084       .  S
N330        C334   1.361       .  A
N330        C331   1.362       .  A
N330        C490   1.437       .  S
C331        C332   1.383       .  A
C331        C391   1.489       .  S
C332        C333   1.366       .  A
C332        H335   1.077       .  S
C333        C334   1.376       .  A
C333        H336   1.083       .  S
C334        C507   1.476       .  S
N337        C341   1.375       .  A
N337        C338   1.387       .  A
N337        C479   1.470       .  S
C338        C339   1.390       .  A
C338        C390   1.523       .  S
C339        C340   1.354       .  A
C339        H342   1.078       .  S
C340        C341   1.370       .  A
C340        H343   1.083       .  S
C341        C462   1.486       .  S
N344        C348   1.373       .  A
N344        C345   1.377       .  A
N344        C434   1.480       .  S
C345        C346   1.379       .  A
C345        C395   1.487       .  S
C346        C347   1.355       .  A
C346        H349   1.083       .  S
C347        C348   1.379       .  A
C347        H350   1.083       .  S
C348        C448   1.484       .  S
C351        C352   1.445       .  A
C351       C1556   1.424       .  A
C351       C1676   1.538       .  S
C352        C353   1.414       .  A
C352        C591   1.504       .  S
C353        C354   1.393       .  A
C353        H358   1.080       .  S
C354        C355   1.409       .  A
C354        C451   1.505       .  S
C355       C1556   1.415       .  A
C355       C1693   1.493       .  S
C356       C1551   1.418   1_455  A
C356       C1555   1.415   1_455  A
C356        H357   1.083       .  S
C359        C360   1.417       .  A
C359        C364   1.406       .  A
C359        C437   1.509       .  S
C360        C361   1.401       .  A
C360        C546   1.460       .  S
C361        C362   1.393       .  A
C361        H366   1.085       .  S
C362        C363   1.426       .  A
C362        C465   1.500       .  S
C363        C364   1.411       .  A
C363        C535   1.481       .  S
C364        H965   1.084       .  S
H365        C964   1.084   1_545  S
Zr367       O369   2.465       .  S
Zr367      O2170   2.516       .  S
Zr367      O1573   2.431       .  S
Zr367       O375   2.390       .  S
Zr367       O376   2.386       .  S
Zr367      O2177   2.405       .  S
Zr367      O1578   2.421       .  S
Zr367      O2168   2.445       .  S
O368      Zr2167   2.445   1_445  S
O368        H424   0.990   1_455  S
O368        H432   0.991       .  S
O369        C389   1.294       .  A
O370      Zr2167   2.514   1_445  S
O370        C391   1.298       .  A
O371       Zr381   2.486       .  S
O371       C1590   1.289       .  A
O372       Zr380   2.435       .  S
O372       C1591   1.283       .  A
O373      Zr1567   2.439   1_455  S
O373        C390   1.288       .  A
O374       Zr382   2.434       .  S
O374        C389   1.278       .  A
O375       Zr980   2.414       .  S
O375       Zr382   2.389       .  S
O376       Zr381   2.396       .  S
O376       Zr382   2.391       .  S
O376        H411   0.965       .  S
O377      Zr2167   2.409   1_445  S
O377      Zr1580   2.407   1_455  S
O377       Zr697   2.372       .  S
O377        H414   0.957       .  S
O378      Zr1567   2.429   1_455  S
O378      Zr1581   2.398   1_455  S
Zr379       O398   2.512       .  S
Zr379       O406   2.433       .  S
Zr379       O994   2.444       .  S
Zr379       O385   2.422       .  S
Zr379       O386   2.425       .  S
Zr379       O987   2.352       .  S
Zr379       O388   2.408       .  S
Zr379       O404   2.442       .  S
Zr380       O975   2.411   1_545  S
Zr380      O1577   2.409       .  S
Zr380       O686   2.397   1_545  S
Zr380      O1299   2.437       .  S
Zr380       O392   2.434       .  S
Zr381      O1578   2.399       .  S
Zr381      O1283   2.436       .  S
Zr381       O405   2.438       .  S
Zr382       O408   2.434       .  S
Zr382       O384   2.437       .  S
O383      Zr1281   2.435   1_456  S
O383        H420   0.990       .  S
O384        H415   0.990       .  S
O384        H429   0.990       .  S
O386       Zr680   2.399       .  S
O386        H412   0.964       .  S
O387       Zr979   2.355   1_545  S
O387      Zr2197   2.387       .  S
O388      Zr1597   2.359       .  S
O388       H1613   0.966       .  S
C390       O1571   1.291       .  A
C391       O1572   1.285   1_455  A
O392        H428   0.990       .  S
O393        C395   1.286       .  A
O394       Zr979   2.444       .  S
O394        C395   1.288   1_565  A
O396       Zr697   2.434       .  S
O396        H425   0.990       .  S
Zr397      O1002   2.424       .  S
Zr397       O677   2.376   1_556  S
Zr397      O2187   2.390       .  S
Zr397      O1588   2.358       .  S
Zr397       O696   2.435   1_556  S
Zr397      O1000   2.430       .  S
Zr397       O401   2.438       .  S
O398       C1603   1.299       .  A
O399      Zr1280   2.438       .  S
O399        H416   0.990       .  S
O400       Zr997   2.432       .  S
O400        H417   0.990       .  S
O401        H421   0.990       .  S
O401        H430   0.988       .  S
O402       Zr997   2.423       .  S
O402       C1003   1.277       .  A
C403        C916   1.514       .  S
C403       O1598   1.300       .  A
C403       O1002   1.278       .  A
O404        H423   0.990       .  S
O404        H427   0.990       .  S
O405        H419   0.990       .  S
O405        H426   0.990       .  S
O406        C410   1.275       .  A
O407        C410   1.285       .  A
O408        H418   0.990       .  S
O409        H422   0.990       .  S
H413       O1588   0.966       .  S
C433        C434   1.417       .  A
C433        C438   1.408   1_545  A
C433        H440   1.078   1_545  S
C434        C435   1.433       .  A
C435       N1042   1.428       .  S
C435       C1036   1.408       .  A
C436       C1035   1.408       .  A
C436        C437   1.398       .  A
C436        H441   1.084       .  S
C437       C1038   1.413       .  A
C438        N439   1.431       .  S
C438       C1037   1.411   1_565  A
N439        O443   1.262       .  A
N439        O444   1.262       .  A
N442       C1035   1.429       .  S
N442        O446   1.262       .  A
N442        O445   1.263       .  A
C447        C448   1.401       .  A
C447        C452   1.400       .  A
C447        H454   1.084       .  S
C448        C449   1.411       .  A
C449        N456   1.430       .  S
C449        C450   1.406       .  A
C450        C451   1.409       .  A
C450        H455   1.083       .  S
C451        C452   1.417       .  A
C452        N453   1.431       .  S
N453        O457   1.263       .  A
N453        O458   1.262       .  A
N456        O460   1.261       .  A
N456        O459   1.262       .  A
C461        C462   1.408       .  A
C461        C466   1.407       .  A
C461        H468   1.083       .  S
C462        C463   1.411       .  A
C463        N470   1.431       .  S
C463        C464   1.404       .  A
C464        C465   1.406       .  A
C464        H469   1.082       .  S
C465        C466   1.406       .  A
C466        N467   1.428       .  S
N467        O471   1.260       .  A
N467        O472   1.262       .  A
N470        O474   1.261       .  A
N470        O473   1.262       .  A
C475       C1676   1.422       .  A
C475        C480   1.428       .  A
C475        H482   1.081       .  S
C476       C1675   1.411   1_455  A
C476        C477   1.420       .  A
C476       C1551   1.529   1_455  S
C477        N484   1.429       .  S
C477        C478   1.411       .  A
C478        C479   1.408       .  A
C478        H483   1.078       .  S
C479       C1680   1.418   1_455  A
C480        N481   1.426       .  S
C480       C1679   1.411       .  A
N481        O485   1.260       .  A
N481        O486   1.262       .  A
N484        O488   1.262       .  A
N484        O487   1.262       .  A
C489        C490   1.401       .  A
C489        C494   1.402       .  A
C489        H496   1.083       .  S
C490       C1691   1.412       .  A
C491        N498   1.428       .  S
C491       C1690   1.413       .  A
C491        C492   1.402       .  A
C492       C1693   1.401       .  A
C492        H497   1.084       .  S
C493       C1692   1.399       .  A
C493        C494   1.414       .  A
C493       C1555   1.488   1_455  S
C494        N495   1.430       .  S
N495        O499   1.261       .  A
N495        O500   1.262       .  A
N498        O502   1.262       .  A
N498        O501   1.261       .  A
C503        C504   1.417       .  A
C503        C508   1.406       .  A
C503        H510   1.081       .  S
C504        C505   1.431       .  A
C505        N512   1.429       .  S
C505        C506   1.397       .  A
C506        C507   1.387       .  A
C506        H511   1.085       .  S
C507        C508   1.404       .  A
C508        N509   1.427       .  S
N509        O513   1.261       .  A
N509        O514   1.262       .  A
N512        O516   1.260       .  A
N512        O515   1.264       .  A
C517        C518   1.417       .  A
C517        C522   1.426       .  A
C517        H524   1.079       .  S
C518        C519   1.418       .  A
C519        N526   1.430       .  S
C519        C520   1.412       .  A
C520        C521   1.405       .  A
C520        H525   1.084       .  S
C521        C522   1.422       .  A
C522        N523   1.432       .  S
N523        O527   1.261       .  A
N523        O528   1.261       .  A
N526        O530   1.260       .  A
N526        O529   1.263       .  A
C531       C1132   1.404       .  A
C531        C536   1.394       .  A
C531        H538   1.083       .  S
C532       C1131   1.404       .  A
C532        C533   1.409       .  A
C533        N540   1.440       .  S
C533        C534   1.412       .  A
C534       C1135   1.407   1_545  A
C534        H539   1.083       .  S
C535       C1134   1.407       .  A
C535        C536   1.408       .  A
C536        N537   1.434       .  S
N537        O541   1.258       .  A
N537        O542   1.262       .  A
N540        O544   1.263       .  A
N540        O543   1.262       .  A
C545        C546   1.395       .  A
C545        C550   1.394       .  A
C545        H552   1.084       .  S
C546        C547   1.407       .  A
C547        N554   1.430       .  S
C547        C548   1.391       .  A
C548        C549   1.400       .  A
C548        H553   1.084       .  S
C549        C550   1.400       .  A
C550        N551   1.419       .  S
N551        O555   1.260       .  A
N551        O556   1.259       .  A
N554        O558   1.262       .  A
N554       O1157   1.262       .  A
O557       N1154   1.262   1_545  A
C559        C560   1.415       .  A
C559        C564   1.419       .  A
C559        H566   1.081       .  S
C560        C561   1.416       .  A
C561        N568   1.422       .  S
C561        C562   1.418       .  A
C562        C563   1.408       .  A
C562        H567   1.078       .  S
C563        C564   1.418       .  A
C564        N565   1.428       .  S
N565        O569   1.261       .  A
N565        O570   1.262       .  A
N568        O572   1.262       .  A
N568        O571   1.260       .  A
C573        C574   1.412       .  A
C573        C578   1.418       .  A
C573        H580   1.081       .  S
C574        C575   1.421       .  A
C575        N582   1.428       .  S
C575        C576   1.389       .  A
C576        C577   1.393       .  A
C576        H581   1.085       .  S
C577        C578   1.423       .  A
C578        N579   1.443       .  S
N579        O583   1.263       .  A
N579        O584   1.262       .  A
N582        O586   1.261       .  A
N582        O585   1.263       .  A
C587        C588   1.395       .  A
C587        C592   1.390       .  A
C587        H594   1.084       .  S
C588        C589   1.418       .  A
C589        N596   1.425       .  S
C589        C590   1.407       .  A
C590        C591   1.404       .  A
C590        H595   1.082       .  S
C591        C592   1.429       .  A
C592        N593   1.433       .  S
N593        O597   1.261       .  A
N593        O598   1.263       .  A
N596        O600   1.261       .  A
N596        O599   1.263       .  A
N601        C605   1.380       .  A
N601        C602   1.367       .  A
N601        C888   1.453       .  S
C602        C603   1.372       .  A
C602        C710   1.467       .  S
C603        C604   1.351       .  A
C603        H606   1.074       .  S
C604        C605   1.384       .  A
C604        H607   1.078       .  S
C605        C874   1.513       .  S
N608        C612   1.362       .  A
N608        C609   1.376       .  A
N608        C860   1.475       .  S
C609        C610   1.388       .  A
C609        C689   1.493       .  S
C610        C611   1.357       .  A
C610        H613   1.083       .  S
C611        C612   1.375       .  A
C611        H614   1.083       .  S
C612        C849   1.460       .  S
N615        C619   1.367       .  A
N615        C616   1.375       .  A
N615        C832   1.440       .  S
C616        C617   1.382       .  A
C617        C618   1.382       .  A
C617        H620   1.082       .  S
C618        C619   1.390       .  A
C618        H621   1.082       .  S
C619        C818   1.532       .  S
C622        C623   1.425       .  A
C622        C627   1.423       .  A
C622        C877   1.500       .  S
C623        C624   1.421       .  A
C623        C863   1.537       .  S
C624        C625   1.443       .  A
C624        H629   1.080       .  S
C625        C626   1.438       .  A
C625        C804   1.532       .  S
C626        C627   1.413       .  A
C626        C821   1.530       .  S
C627        H628   1.084       .  S
N630        C634   1.363       .  A
N630        C631   1.365       .  A
N630        C790   1.442       .  S
C631        C632   1.383       .  A
C631        C691   1.489       .  S
C632        C633   1.365       .  A
C632        H635   1.077       .  S
C633        C634   1.376       .  A
C633        H636   1.083       .  S
C634        C807   1.478       .  S
N637        C641   1.373       .  A
N637        C638   1.383       .  A
N637        C779   1.465       .  S
C638        C639   1.388       .  A
C638        C690   1.496       .  S
C639        C640   1.347       .  A
C639        H642   1.083       .  S
C640        C641   1.371       .  A
C640        H643   1.081       .  S
C641        C762   1.475       .  S
N644        C648   1.376       .  A
N644        C645   1.380       .  A
N644        C734   1.485       .  S
C645        C646   1.381       .  A
C645        C695   1.495       .  S
C646        C647   1.354       .  A
C646        H649   1.083       .  S
C647        C648   1.378       .  A
C647        H650   1.083       .  S
C648        C748   1.487       .  S
C651        C652   1.439       .  A
C651       C1856   1.417       .  A
C651       C1976   1.529       .  S
C652        C653   1.415       .  A
C652        C891   1.497       .  S
C653        C654   1.395       .  A
C653        H658   1.080       .  S
C654        C655   1.410       .  A
C654        C751   1.504       .  S
C655       C1856   1.410       .  A
C655       C1993   1.485       .  S
C656       C1851   1.425       .  A
C656       C1855   1.417       .  A
C656        H657   1.082   1_655  S
C659        C660   1.414       .  A
C659        C664   1.409       .  A
C659        C737   1.506   1_565  S
C660        C661   1.392       .  A
C660        C846   1.463       .  S
C661        C662   1.391       .  A
C661        H666   1.086       .  S
C662        C663   1.429       .  A
C662        C765   1.496       .  S
C663        C664   1.416       .  A
C663        C835   1.485   1_565  S
Zr667       O669   2.457       .  S
Zr667      O1270   2.507   1_565  S
Zr667      O1873   2.422       .  S
Zr667       O675   2.381       .  S
Zr667       O676   2.384       .  S
Zr667      O1277   2.407   1_565  S
Zr667      O1878   2.422       .  S
Zr667      O1268   2.444   1_565  S
O668      Zr1267   2.444   1_455  S
O668        H724   0.990       .  S
O668        H732   0.991       .  S
O669        C689   1.292       .  A
O670      Zr1267   2.518   1_455  S
O670        C691   1.299       .  A
O671       Zr681   2.481       .  S
O671       C1890   1.289       .  A
O672       Zr680   2.437   1_554  S
O672       C1891   1.284       .  A
O673      Zr1867   2.418   1_455  S
O673        C690   1.285       .  A
O674       Zr682   2.438       .  S
O674        C689   1.279       .  A
O675       Zr682   2.387       .  S
O676       Zr681   2.400       .  S
O676       Zr682   2.391       .  S
O676        H711   0.965       .  S
O677      Zr1267   2.410   1_455  S
O677      Zr1880   2.410   1_454  S
O677        H714   0.962       .  S
O678      Zr1867   2.423   1_455  S
O678      Zr1881   2.402   1_455  S
O678       Zr997   2.404   1_564  S
Zr679       O698   2.518       .  S
Zr679       O706   2.430       .  S
Zr679       O685   2.423       .  S
Zr679       O686   2.429       .  S
Zr679       O688   2.403       .  S
Zr679       O704   2.444       .  S
Zr680       O993   2.459       .  S
Zr680      O1877   2.408   1_556  S
Zr680       O987   2.407       .  S
Zr680      O2199   2.438       .  S
Zr680       O692   2.434   1_556  S
Zr681      O1007   2.436   1_554  S
Zr681      O1878   2.398       .  S
Zr681       O985   2.404   1_554  S
Zr681       O988   2.430   1_554  S
Zr681      O2183   2.435   1_554  S
Zr681       O705   2.440       .  S
Zr682       O985   2.392   1_554  S
Zr682       O986   2.411   1_554  S
Zr682       O708   2.434       .  S
Zr682      O1009   2.442   1_554  S
Zr682       O684   2.441       .  S
O683      Zr2181   2.434   1_455  S
O683        H720   0.990       .  S
O684        H715   0.990       .  S
O684        H729   0.990       .  S
O685       Zr981   2.399       .  S
O685       Zr982   2.395       .  S
O686       Zr982   2.410       .  S
O686        H712   0.965       .  S
O687       Zr980   2.415       .  S
O687      Zr1297   2.391       .  S
O688       Zr981   2.428       .  S
O688      Zr1897   2.363   1_565  S
O688       H1913   0.966       .  S
C690       O1871   1.288       .  A
C691       O1872   1.284   1_455  A
O692        H728   0.990       .  S
O693       Zr980   2.479       .  S
O693        C695   1.290       .  A
O694        C695   1.286       .  A
O696        H725   0.990       .  S
Zr697       O978   2.406   1_545  S
Zr697      O1287   2.386       .  S
Zr697      O1888   2.357   1_545  S
Zr697       O701   2.439   1_545  S
O698       C1903   1.300   1_565  A
O699      Zr2180   2.437   1_455  S
O699        H716   0.990   1_455  S
O699       H1031   0.989       .  S
O700        H717   0.990       .  S
O701        H721   0.990       .  S
O701        H730   0.988       .  S
C703       O1898   1.304   1_545  A
O704        H723   0.991       .  S
O704        H727   0.990       .  S
O705        H719   0.990       .  S
O705        H726   0.989       .  S
O706        C710   1.275       .  A
O707       Zr981   2.446       .  S
O707        C710   1.282       .  A
O708        H718   0.990       .  S
O709       Zr982   2.442       .  S
O709        H722   0.990       .  S
H713       O1888   0.966       .  S
H731        O999   0.990   1_655  S
C733        C734   1.418       .  A
C733        C738   1.413       .  A
C733        H740   1.079       .  S
C734        C735   1.438       .  A
C736        C737   1.398       .  A
C736        H741   1.083       .  S
C738        N739   1.431       .  S
N739        O743   1.262       .  A
N739        O744   1.262       .  A
N742        O746   1.261       .  A
N742        O745   1.263       .  A
C747        C748   1.402       .  A
C747        C752   1.400       .  A
C747        H754   1.084       .  S
C748        C749   1.410       .  A
C749        N756   1.428       .  S
C749        C750   1.407       .  A
C750        C751   1.409       .  A
C750        H755   1.083       .  S
C751        C752   1.416       .  A
C752        N753   1.431       .  S
N753        O757   1.263       .  A
N753        O758   1.262       .  A
N756        O760   1.262       .  A
N756        O759   1.262       .  A
C761        C762   1.409       .  A
C761        C766   1.409       .  A
C761        H768   1.084       .  S
C762        C763   1.414       .  A
C763        N770   1.436       .  S
C763        C764   1.398       .  A
C764        C765   1.405       .  A
C764        H769   1.084       .  S
C765        C766   1.406       .  A
C766        N767   1.428       .  S
N767        O771   1.261       .  A
N767        O772   1.262       .  A
N770        O774   1.260       .  A
N770        O773   1.262       .  A
C775       C1976   1.419       .  A
C775        C780   1.427       .  A
C775        H782   1.083       .  S
C776       C1975   1.417   1_455  A
C776        C777   1.420       .  A
C776       C1851   1.529   1_455  S
C777        N784   1.430       .  S
C777        C778   1.405       .  A
C778        C779   1.403       .  A
C778        H783   1.073       .  S
C779       C1980   1.414       .  A
C780        N781   1.426       .  S
C780       C1979   1.414       .  A
N781        O785   1.260       .  A
N781        O786   1.262       .  A
N784        O788   1.262       .  A
N784        O787   1.262       .  A
C789        C790   1.401       .  A
C789        C794   1.403       .  A
C789        H796   1.083       .  S
C790       C1991   1.413       .  A
C791        N798   1.428       .  S
C791       C1990   1.413       .  A
C791        C792   1.398       .  A
C792       C1993   1.398       .  A
C792        H797   1.084       .  S
C793       C1992   1.402   1_455  A
C793        C794   1.415       .  A
C793       C1855   1.497   1_455  S
C794        N795   1.429       .  S
N795        O799   1.261       .  A
N795        O800   1.262       .  A
N798        O802   1.262       .  A
N798        O801   1.261       .  A
C803        C804   1.418       .  A
C803        C808   1.408       .  A
C803        H810   1.080       .  S
C804        C805   1.431       .  A
C805        N812   1.431       .  S
C805        C806   1.398       .  A
C806        C807   1.388       .  A
C806        H811   1.085       .  S
C807        C808   1.405       .  A
C808        N809   1.428       .  S
N809        O813   1.261       .  A
N809        O814   1.262       .  A
N812        O816   1.260       .  A
N812        O815   1.264       .  A
C817        C818   1.415       .  A
C817        C822   1.428       .  A
C817        H824   1.081       .  S
C818        C819   1.419       .  A
C819        N826   1.428       .  S
C819        C820   1.413       .  A
C820        C821   1.405       .  A
C820        H825   1.084       .  S
C821        C822   1.424       .  A
C822        N823   1.432       .  S
N823        O827   1.261       .  A
N823        O828   1.262       .  A
N826        O830   1.259       .  A
N826        O829   1.263       .  A
C831        C836   1.396       .  A
C831        H838   1.083       .  S
C832        C833   1.406       .  A
C833        N840   1.439       .  S
C833        C834   1.410       .  A
C834        H839   1.083       .  S
C835        C836   1.406       .  A
C836        N837   1.431       .  S
N837        O841   1.258   1_545  A
N837        O842   1.262       .  A
N840        O844   1.263       .  A
N840        O843   1.262       .  A
C845        C846   1.396       .  A
C845        C850   1.391       .  A
C845        H852   1.084       .  S
C846        C847   1.411       .  A
C847        N854   1.433       .  S
C847        C848   1.392       .  A
C848        C849   1.399       .  A
C848        H853   1.084       .  S
C849        C850   1.399       .  A
C850        N851   1.420       .  S
N851        O855   1.260       .  A
N851        O856   1.259       .  A
N854        O858   1.262       .  A
C859        C860   1.415       .  A
C859        C864   1.420       .  A
C859        H866   1.082       .  S
C860        C861   1.415       .  A
C861        N868   1.423       .  S
C861        C862   1.418       .  A
C862        C863   1.408       .  A
C862        H867   1.077       .  S
C863        C864   1.419       .  A
C864        N865   1.428       .  S
N865        O869   1.261       .  A
N865        O870   1.262       .  A
N868        O872   1.262       .  A
N868        O871   1.261       .  A
C873        C874   1.410       .  A
C873        C878   1.420       .  A
C873        H880   1.082       .  S
C874        C875   1.420       .  A
C875        N882   1.429       .  S
C875        C876   1.391       .  A
C876        C877   1.394       .  A
C876        H881   1.085       .  S
C877        C878   1.426       .  A
C878        N879   1.443       .  S
N879        O883   1.263       .  A
N879        O884   1.262       .  A
N882        O886   1.262       .  A
N882        O885   1.263       .  A
C887        C888   1.398       .  A
C887        C892   1.391       .  A
C887        H894   1.083       .  S
C888        C889   1.423       .  A
C889        N896   1.424       .  S
C889        C890   1.404       .  A
C890        C891   1.401       .  A
C890        H895   1.083       .  S
C891        C892   1.422       .  A
C892        N893   1.432       .  S
N893        O897   1.261       .  A
N893        O898   1.263       .  A
N896        O900   1.261       .  A
N896        O899   1.264       .  A
N901        C905   1.380       .  A
N901        C902   1.366       .  A
N901       C1188   1.455       .  S
C902        C903   1.370       .  A
C902       C1010   1.464       .  S
C903        C904   1.349       .  A
C903        H906   1.073       .  S
C904        C905   1.383       .  A
C904        H907   1.076       .  S
C905       C1174   1.510       .  S
N908        C912   1.364       .  A
N908        C909   1.380       .  A
N908       C1160   1.476       .  S
C909        C910   1.387       .  A
C909        C989   1.498       .  S
C910        C911   1.356       .  A
C910        H913   1.083       .  S
C911        C912   1.375       .  A
C911        H914   1.083       .  S
C912       C1149   1.463       .  S
N915        C919   1.366       .  A
N915        C916   1.375       .  A
N915       C1132   1.437       .  S
C916        C917   1.382       .  A
C917        C918   1.382       .  A
C917        H920   1.082       .  S
C918        C919   1.390       .  A
C918        H921   1.082       .  S
C919       C1118   1.533       .  S
C922        C923   1.426       .  A
C922        C927   1.424       .  A
C922       C1177   1.497       .  S
C923        C924   1.419       .  A
C923       C1163   1.537       .  S
C924        C925   1.440       .  A
C924        H929   1.081       .  S
C925        C926   1.434       .  A
C925       C1104   1.525       .  S
C926        C927   1.412       .  A
C926       C1121   1.530       .  S
C927        H928   1.084       .  S
N930        C934   1.360       .  A
N930        C931   1.361       .  A
N930       C1090   1.438       .  S
C931        C932   1.383       .  A
C931        C991   1.486       .  S
C932        C933   1.366       .  A
C932        H935   1.077       .  S
C933        C934   1.376       .  A
C933        H936   1.083       .  S
C934       C1107   1.475       .  S
N937        C941   1.375       .  A
N937        C938   1.384       .  A
N937       C1079   1.464       .  S
C938        C939   1.387       .  A
C938        C990   1.497       .  S
C939        C940   1.351       .  A
C939        H942   1.083       .  S
C940        C941   1.372       .  A
C940        H943   1.082       .  S
C941       C1062   1.481       .  S
N944        C948   1.374       .  A
N944        C945   1.376       .  A
N944       C1034   1.479       .  S
C945        C946   1.380       .  A
C945        C995   1.488       .  S
C946        C947   1.356       .  A
C946        H949   1.083       .  S
C947        C948   1.378       .  A
C947        H950   1.083       .  S
C948       C1048   1.485       .  S
C951        C952   1.444       .  A
C951       C2156   1.425       .  A
C951       C2276   1.539       .  S
C952        C953   1.414       .  A
C952       C1191   1.502       .  S
C953        C954   1.393       .  A
C953        H958   1.081       .  S
C954        C955   1.409       .  A
C954       C1051   1.504       .  S
C955       C2156   1.415       .  A
C955       C2293   1.492       .  S
C956       C2151   1.420   1_455  A
C956       C2155   1.414   1_455  A
C956        H957   1.082       .  S
C959        C960   1.414       .  A
C959        C964   1.408       .  A
C959       C1037   1.507   1_565  S
C960        C961   1.395       .  A
C960       C1146   1.465       .  S
C961        C962   1.395       .  A
C961        H966   1.086       .  S
C962        C963   1.430       .  A
C962       C1065   1.503       .  S
C963        C964   1.414       .  A
C963       C1135   1.483       .  S
Zr967       O969   2.469       .  S
Zr967      O1570   2.519   1_565  S
Zr967      O2173   2.432       .  S
Zr967       O975   2.382       .  S
Zr967       O976   2.386       .  S
Zr967      O1577   2.411   1_565  S
Zr967      O2178   2.423       .  S
Zr967      O1568   2.444   1_565  S
O968      Zr1567   2.443   1_455  S
O968       H1024   0.990   1_455  S
O968       H1032   0.991       .  S
O969        C989   1.295       .  A
O970      Zr1567   2.511   1_455  S
O970        C991   1.298       .  A
O971       Zr981   2.472       .  S
O971       C2190   1.287       .  A
O972       Zr980   2.453       .  S
O972       C2191   1.286       .  A
O973      Zr2167   2.423   1_455  S
O973        C990   1.286       .  A
O974       Zr982   2.441       .  S
O974        C989   1.279       .  A
O975       Zr982   2.382       .  S
O976       Zr981   2.397       .  S
O976       Zr982   2.389       .  S
O976       H1011   0.965       .  S
O977      Zr1567   2.415   1_455  S
O977      Zr2180   2.407   1_455  S
O977       H1014   0.917       .  S
O978      Zr2167   2.425   1_455  S
O978      Zr2181   2.399   1_455  S
Zr979       O998   2.520       .  S
Zr979      O1006   2.439       .  S
Zr979       O985   2.420       .  S
Zr979       O986   2.426       .  S
Zr979       O988   2.402       .  S
Zr979      O1004   2.442       .  S
Zr980      O2177   2.410       .  S
Zr980      O1899   2.440       .  S
Zr980       O992   2.433       .  S
Zr981      O2178   2.401       .  S
Zr981      O1883   2.434       .  S
Zr981      O1005   2.438       .  S
Zr982      O1008   2.435       .  S
Zr982       O984   2.438       .  S
O983      Zr1881   2.434   1_456  S
O983       H1020   0.990       .  S
O984       H1015   0.990       .  S
O984       H1029   0.990       .  S
O986       H1012   0.965       .  S
O987      Zr1597   2.389       .  S
O988      Zr2197   2.358   1_565  S
O988       H2213   0.966       .  S
C990       O2171   1.290       .  A
C991       O2172   1.284   1_455  A
O992       H1028   0.990       .  S
O993        C995   1.287       .  A
O994        C995   1.288       .  A
O996       H1025   0.990       .  S
Zr997      O1587   2.389       .  S
Zr997      O2188   2.360   1_545  S
Zr997      O1001   2.438   1_545  S
O998       C2203   1.301   1_565  A
O999      Zr1880   2.438   1_455  S
O999       H1016   0.990       .  S
O1000      H1017   0.991       .  S
O1001      H1021   0.990   1_556  S
O1001      H1030   0.988       .  S
C1003      O2198   1.301   1_545  A
O1004      H1023   0.991       .  S
O1004      H1027   0.990       .  S
O1005      H1019   0.990       .  S
O1005      H1026   0.990       .  S
O1006      C1010   1.279       .  A
O1007      C1010   1.281       .  A
O1008      H1018   0.989       .  S
O1009      H1022   0.990       .  S
H1013      O2188   0.966       .  S
C1033      C1034   1.417       .  A
C1033      C1038   1.411       .  A
C1033      H1040   1.079       .  S
C1034      C1035   1.430       .  A
C1036      C1037   1.398       .  A
C1036      H1041   1.084       .  S
C1038      N1039   1.432       .  S
N1039      O1043   1.262       .  A
N1039      O1044   1.262       .  A
N1042      O1046   1.261       .  A
N1042      O1045   1.263       .  A
C1047      C1048   1.401       .  A
C1047      C1052   1.403       .  A
C1047      H1054   1.084       .  S
C1048      C1049   1.411       .  A
C1049      N1056   1.429       .  S
C1049      C1050   1.405       .  A
C1050      C1051   1.408       .  A
C1050      H1055   1.084       .  S
C1051      C1052   1.417       .  A
C1052      N1053   1.431       .  S
N1053      O1057   1.262       .  A
N1053      O1058   1.262       .  A
N1056      O1060   1.262       .  A
N1056      O1059   1.262       .  A
C1061      C1062   1.409       .  A
C1061      C1066   1.413       .  A
C1061      H1068   1.084       .  S
C1062      C1063   1.412       .  A
C1063      N1070   1.435       .  S
C1063      C1064   1.398       .  A
C1064      C1065   1.407       .  A
C1064      H1069   1.084       .  S
C1065      C1066   1.410       .  A
C1066      N1067   1.431       .  S
N1067      O1071   1.262       .  A
N1067      O1072   1.262       .  A
N1070      O1074   1.261       .  A
N1070      O1073   1.262       .  A
C1075      C2276   1.421       .  A
C1075      C1080   1.426       .  A
C1075      H1082   1.082       .  S
C1076      C2275   1.417   1_455  A
C1076      C1077   1.419       .  A
C1076      C2151   1.528   1_455  S
C1077      N1084   1.429       .  S
C1077      C1078   1.404       .  A
C1078      C1079   1.401       .  A
C1078      H1083   1.075       .  S
C1079      C2280   1.413       .  A
C1080      N1081   1.426       .  S
C1080      C2279   1.411       .  A
N1081      O1085   1.260       .  A
N1081      O1086   1.262       .  A
N1084      O1088   1.262       .  A
N1084      O1087   1.262       .  A
C1089      C1090   1.401       .  A
C1089      C1094   1.401       .  A
C1089      H1096   1.082       .  S
C1090      C2291   1.414       .  A
C1091      N1098   1.427       .  S
C1091      C2290   1.413       .  A
C1091      C1092   1.404       .  A
C1092      C2293   1.401       .  A
C1092      H1097   1.084       .  S
C1093      C2292   1.400   1_455  A
C1093      C1094   1.412       .  A
C1093      C2155   1.489   1_455  S
C1094      N1095   1.429       .  S
N1095      O1099   1.260       .  A
N1095      O1100   1.262       .  A
N1098      O1102   1.262       .  A
N1098      O1101   1.262       .  A
C1103      C1104   1.417       .  A
C1103      C1108   1.406       .  A
C1103      H1110   1.081       .  S
C1104      C1105   1.431       .  A
C1105      N1112   1.430       .  S
C1105      C1106   1.397       .  A
C1106      C1107   1.387       .  A
C1106      H1111   1.085       .  S
C1107      C1108   1.403       .  A
C1108      N1109   1.427       .  S
N1109      O1113   1.261       .  A
N1109      O1114   1.262       .  A
N1112      O1116   1.260       .  A
N1112      O1115   1.264       .  A
C1117      C1118   1.416       .  A
C1117      C1122   1.427       .  A
C1117      H1124   1.078       .  S
C1118      C1119   1.417       .  A
C1119      N1126   1.427       .  S
C1119      C1120   1.413       .  A
C1120      C1121   1.406       .  A
C1120      H1125   1.084       .  S
C1121      C1122   1.424       .  A
C1122      N1123   1.432       .  S
N1123      O1127   1.261       .  A
N1123      O1128   1.262       .  A
N1126      O1130   1.259       .  A
N1126      O1129   1.263       .  A
C1131      C1136   1.394       .  A
C1131      H1138   1.083       .  S
C1132      C1133   1.406       .  A
C1133      N1140   1.439       .  S
C1133      C1134   1.410       .  A
C1134      H1139   1.083       .  S
C1135      C1136   1.405   1_565  A
C1136      N1137   1.430       .  S
N1137      O1141   1.258   1_545  A
N1137      O1142   1.262       .  A
N1140      O1144   1.263       .  A
N1140      O1143   1.262       .  A
C1145      C1146   1.396       .  A
C1145      C1150   1.393       .  A
C1145      H1152   1.084       .  S
C1146      C1147   1.411       .  A
C1147      N1154   1.431       .  S
C1147      C1148   1.393       .  A
C1148      C1149   1.398       .  A
C1148      H1153   1.084       .  S
C1149      C1150   1.400       .  A
C1150      N1151   1.418       .  S
N1151      O1155   1.260       .  A
N1151      O1156   1.259       .  A
N1154      O1158   1.262       .  A
C1159      C1160   1.415       .  A
C1159      C1164   1.420       .  A
C1159      H1166   1.082       .  S
C1160      C1161   1.416       .  A
C1161      N1168   1.422       .  S
C1161      C1162   1.419       .  A
C1162      C1163   1.408       .  A
C1162      H1167   1.077       .  S
C1163      C1164   1.418       .  A
C1164      N1165   1.428       .  S
N1165      O1169   1.261       .  A
N1165      O1170   1.262       .  A
N1168      O1172   1.262       .  A
N1168      O1171   1.261       .  A
C1173      C1174   1.410       .  A
C1173      C1178   1.418       .  A
C1173      H1180   1.082       .  S
C1174      C1175   1.420       .  A
C1175      N1182   1.429       .  S
C1175      C1176   1.389       .  A
C1176      C1177   1.394       .  A
C1176      H1181   1.085       .  S
C1177      C1178   1.425       .  A
C1178      N1179   1.442       .  S
N1179      O1183   1.263       .  A
N1179      O1184   1.262       .  A
N1182      O1186   1.261       .  A
N1182      O1185   1.263       .  A
C1187      C1188   1.398       .  A
C1187      C1192   1.391       .  A
C1187      H1194   1.083       .  S
C1188      C1189   1.422       .  A
C1189      N1196   1.424       .  S
C1189      C1190   1.407       .  A
C1190      C1191   1.402       .  A
C1190      H1195   1.083       .  S
C1191      C1192   1.424       .  A
C1192      N1193   1.432       .  S
N1193      O1197   1.261       .  A
N1193      O1198   1.263       .  A
N1196      O1200   1.261       .  A
N1196      O1199   1.263       .  A
N1201      C1205   1.377       .  A
N1201      C1202   1.362       .  A
N1201      C1488   1.447       .  S
C1202      C1203   1.370       .  A
C1202      C1310   1.464       .  S
C1203      C1204   1.353       .  A
C1203      H1206   1.074       .  S
C1204      C1205   1.385       .  A
C1204      H1207   1.076       .  S
C1205      C1474   1.513       .  S
N1208      C1212   1.363       .  A
N1208      C1209   1.379       .  A
N1208      C1460   1.477       .  S
C1209      C1210   1.387       .  A
C1209      C1289   1.497       .  S
C1210      C1211   1.358       .  A
C1210      H1213   1.083       .  S
C1211      C1212   1.376       .  A
C1211      H1214   1.083       .  S
C1212      C1449   1.462       .  S
N1215      C1219   1.370       .  A
N1215      C1216   1.377       .  A
N1215      C1432   1.441       .  S
C1216      C1217   1.381       .  A
C1216      C1903   1.517       .  S
C1217      C1218   1.380       .  A
C1217      H1220   1.082       .  S
C1218      C1219   1.389       .  A
C1218      H1221   1.082       .  S
C1219      C1418   1.535       .  S
C1222      C1223   1.424       .  A
C1222      C1227   1.424       .  A
C1222      C1477   1.493       .  S
C1223      C1224   1.419       .  A
C1223      C1463   1.540       .  S
C1224      C1225   1.442       .  A
C1224      H1229   1.081       .  S
C1225      C1226   1.436       .  A
C1225      C1404   1.525       .  S
C1226      C1227   1.413       .  A
C1226      C1421   1.533       .  S
C1227      H1228   1.084       .  S
N1230      C1234   1.363       .  A
N1230      C1231   1.362       .  A
N1230      C1390   1.442       .  S
C1231      C1232   1.382       .  A
C1231      C1291   1.485       .  S
C1232      C1233   1.363       .  A
C1232      H1235   1.076       .  S
C1233      C1234   1.375       .  A
C1233      H1236   1.083       .  S
C1234      C1407   1.474       .  S
N1237      C1241   1.373       .  A
N1237      C1238   1.381       .  A
N1237      C1379   1.465       .  S
C1238      C1239   1.393       .  A
C1238      C1290   1.518       .  S
C1239      C1240   1.353       .  A
C1239      H1242   1.081       .  S
C1240      C1241   1.371       .  A
C1240      H1243   1.083       .  S
C1241      C1362   1.482       .  S
N1244      C1248   1.372       .  A
N1244      C1245   1.375       .  A
N1244      C1334   1.479       .  S
C1245      C1246   1.379       .  A
C1245      C1295   1.485       .  S
C1246      C1247   1.357       .  A
C1246      H1249   1.083       .  S
C1247      C1248   1.380       .  A
C1247      H1250   1.083       .  S
C1248      C1348   1.485       .  S
C1251      C1252   1.444       .  A
C1252      C1253   1.416       .  A
C1252      C1491   1.496       .  S
C1253      C1254   1.392       .  A
C1253      H1258   1.081       .  S
C1254      C1255   1.408       .  A
C1254      C1351   1.503       .  S
C1256      H1257   1.083       .  S
C1259      C1260   1.417       .  A
C1259      C1264   1.406       .  A
C1259      C1337   1.504       .  S
C1260      C1261   1.399       .  A
C1260      C1446   1.461       .  S
C1261      C1262   1.391       .  A
C1261      H1266   1.085       .  S
C1262      C1263   1.424       .  A
C1262      C1365   1.494       .  S
C1263      C1264   1.410       .  A
C1263      C1435   1.482       .  S
C1264      H1865   1.084       .  S
H1265      C1864   1.084   1_545  S
Zr1267     O1269   2.476       .  S
Zr1267     O1275   2.381       .  S
Zr1267     O1276   2.381       .  S
O1268      H1324   0.990       .  S
O1268      H1332   0.991       .  S
O1269      C1289   1.297       .  A
O1270      C1291   1.297       .  A
O1271     Zr1281   2.485   1_455  S
O1272     Zr1280   2.443   1_554  S
O1273      C1290   1.283       .  A
O1274     Zr1282   2.432       .  S
O1274      C1289   1.278       .  A
O1275     Zr1880   2.413   1_554  S
O1275     Zr1282   2.387       .  S
O1276     Zr1281   2.396       .  S
O1276     Zr1282   2.392       .  S
O1276      H1311   0.965       .  S
O1277     Zr2197   2.374   1_554  S
O1277      H1314   0.960       .  S
O1278     Zr1597   2.411   1_554  S
Zr1279     O1298   2.514   1_655  S
Zr1279     O1306   2.429       .  S
Zr1279     O1894   2.444       .  S
Zr1279     O1285   2.423       .  S
Zr1279     O1286   2.425       .  S
Zr1279     O1887   2.352   1_655  S
Zr1279     O1288   2.409   1_655  S
Zr1279     O1304   2.443       .  S
Zr1280     O1593   2.463       .  S
Zr1280     O1875   2.414   1_546  S
Zr1280     O2186   2.399   1_545  S
Zr1280     O1587   2.410   1_655  S
Zr1280     O1292   2.434   1_556  S
Zr1281     O1607   2.434   1_554  S
Zr1281     O1585   2.404   1_554  S
Zr1281     O1588   2.430   1_654  S
Zr1281     O1305   2.438       .  S
Zr1282     O1585   2.388   1_554  S
Zr1282     O1586   2.415   1_554  S
Zr1282     O1308   2.435       .  S
Zr1282     O1609   2.440   1_554  S
Zr1282     O1284   2.442       .  S
O1283      H1320   0.990       .  S
O1284      H1315   0.990       .  S
O1284      H1329   0.990       .  S
O1285     Zr1581   2.410       .  S
O1285     Zr1582   2.384       .  S
O1286     Zr2180   2.400       .  S
O1286     Zr1582   2.412       .  S
O1286      H1312   0.965       .  S
O1287     Zr1879   2.355   1_445  S
O1287     Zr1580   2.411   1_455  S
O1288     Zr1581   2.434   1_455  S
O1292      H1328   0.990       .  S
O1293     Zr1580   2.455       .  S
O1293      C1295   1.286       .  A
O1294     Zr1879   2.441       .  S
O1294      C1295   1.287   1_565  A
O1296     Zr2197   2.435   1_554  S
O1296      H1325   0.990       .  S
Zr1297     O1902   2.413       .  S
Zr1297     O2177   2.364       .  S
Zr1297     O1578   2.399       .  S
Zr1297     O2196   2.435       .  S
Zr1297     O1900   2.428       .  S
Zr1297     O1301   2.439       .  S
O1299      H1316   0.990       .  S
O1299      H1631   0.990       .  S
O1300     Zr1897   2.431       .  S
O1300      H1317   0.990       .  S
O1301      H1321   0.989       .  S
O1301      H1330   0.988       .  S
O1302     Zr1897   2.425       .  S
O1302      C1903   1.277       .  A
C1303      C1816   1.513       .  S
C1303      O1902   1.275       .  A
O1304      H1323   0.991       .  S
O1304      H1327   0.990       .  S
O1305      H1319   0.990       .  S
O1305      H1326   0.990       .  S
O1306      C1310   1.274       .  A
O1307     Zr1581   2.448       .  S
O1307      C1310   1.283       .  A
O1308      H1318   0.990       .  S
O1309     Zr1582   2.442       .  S
O1309      H1322   0.990       .  S
H1331      O1599   0.990       .  S
C1333      C1334   1.417       .  A
C1333      C1338   1.408   1_545  A
C1333      H1340   1.078   1_545  S
C1334      C1335   1.431       .  A
C1335      N1942   1.428       .  S
C1335      C1936   1.406       .  A
C1336      C1935   1.406       .  A
C1336      C1337   1.397       .  A
C1336      H1341   1.084       .  S
C1337      C1938   1.412       .  A
C1338      N1339   1.433       .  S
C1338      C1937   1.412       .  A
N1339      O1343   1.262       .  A
N1339      O1344   1.262       .  A
N1342      C1935   1.429       .  S
N1342      O1346   1.261       .  A
N1342      O1345   1.263       .  A
C1347      C1348   1.401       .  A
C1347      C1352   1.401       .  A
C1347      H1354   1.084       .  S
C1348      C1349   1.412       .  A
C1349      N1356   1.430       .  S
C1349      C1350   1.407       .  A
C1350      C1351   1.408       .  A
C1350      H1355   1.083       .  S
C1351      C1352   1.416       .  A
C1352      N1353   1.431       .  S
N1353      O1357   1.262       .  A
N1353      O1358   1.262       .  A
N1356      O1360   1.262       .  A
N1356      O1359   1.261       .  A
C1361      C1362   1.407       .  A
C1361      C1366   1.404       .  A
C1361      H1368   1.082       .  S
C1362      C1363   1.410       .  A
C1363      N1370   1.431       .  S
C1363      C1364   1.403       .  A
C1364      C1365   1.405       .  A
C1364      H1369   1.082       .  S
C1365      C1366   1.405       .  A
C1366      N1367   1.428       .  S
N1367      O1371   1.261       .  A
N1367      O1372   1.262       .  A
N1370      O1374   1.261       .  A
N1370      O1373   1.262       .  A
C1375      C1380   1.429   1_655  A
C1375      H1382   1.081       .  S
C1376      C1377   1.419       .  A
C1377      N1384   1.429       .  S
C1377      C1378   1.409       .  A
C1378      C1379   1.408       .  A
C1378      H1383   1.078       .  S
C1380      N1381   1.425   1_455  S
N1381      O1385   1.260       .  A
N1381      O1386   1.262       .  A
N1384      O1388   1.262       .  A
N1384      O1387   1.262       .  A
C1389      C1390   1.404       .  A
C1389      C1394   1.401       .  A
C1389      H1396   1.082       .  S
C1391      N1398   1.427       .  S
C1391      C1392   1.400       .  A
C1392      H1397   1.084       .  S
C1393      C1394   1.410       .  A
C1394      N1395   1.429       .  S
N1395      O1399   1.260       .  A
N1395      O1400   1.262       .  A
N1398      O1402   1.262   1_655  A
N1398      O1401   1.262       .  A
C1403      C1404   1.417       .  A
C1403      C1408   1.406       .  A
C1403      H1410   1.081       .  S
C1404      C1405   1.431       .  A
C1405      N1412   1.430       .  S
C1405      C1406   1.396       .  A
C1406      C1407   1.387       .  A
C1406      H1411   1.085       .  S
C1407      C1408   1.403       .  A
C1408      N1409   1.428       .  S
N1409      O1413   1.261       .  A
N1409      O1414   1.262       .  A
N1412      O1416   1.260       .  A
N1412      O1415   1.264       .  A
C1417      C1418   1.417       .  A
C1417      C1422   1.429       .  A
C1417      H1424   1.080       .  S
C1418      C1419   1.420       .  A
C1419      N1426   1.429       .  S
C1419      C1420   1.414       .  A
C1420      C1421   1.406       .  A
C1420      H1425   1.084       .  S
C1421      C1422   1.424       .  A
C1422      N1423   1.431       .  S
N1423      O1427   1.261       .  A
N1423      O1428   1.261       .  A
N1426      O1430   1.260       .  A
N1426      O1429   1.263       .  A
C1431      C2032   1.406       .  A
C1431      C1436   1.396       .  A
C1431      H1438   1.083       .  S
C1432      C2031   1.407       .  A
C1432      C1433   1.408       .  A
C1433      N1440   1.438       .  S
C1433      C1434   1.409       .  A
C1434      C2035   1.405   1_545  A
C1434      H1439   1.083       .  S
C1435      C2034   1.405       .  A
C1435      C1436   1.407       .  A
C1436      N1437   1.432       .  S
N1437      O1441   1.258       .  A
N1437      O1442   1.262       .  A
N1440      O1444   1.263       .  A
N1440      O1443   1.262       .  A
C1445      C1446   1.395       .  A
C1445      C1450   1.393       .  A
C1445      H1452   1.084       .  S
C1446      C1447   1.409       .  A
C1447      N1454   1.430       .  S
C1447      C1448   1.392       .  A
C1448      C1449   1.400       .  A
C1448      H1453   1.084       .  S
C1449      C1450   1.400       .  A
C1450      N1451   1.418       .  S
N1451      O1455   1.260       .  A
N1451      O1456   1.258       .  A
N1454      O1458   1.262       .  A
N1454      O2057   1.262       .  A
O1457      N2054   1.262   1_545  A
C1459      C1460   1.416       .  A
C1459      C1464   1.422       .  A
C1459      H1466   1.082       .  S
C1460      C1461   1.415       .  A
C1461      N1468   1.421       .  S
C1461      C1462   1.419       .  A
C1462      C1463   1.409       .  A
C1462      H1467   1.078       .  S
C1463      C1464   1.419       .  A
C1464      N1465   1.428       .  S
N1465      O1469   1.261       .  A
N1465      O1470   1.262       .  A
N1468      O1472   1.262       .  A
N1468      O1471   1.260       .  A
C1473      C1474   1.413       .  A
C1473      C1478   1.419       .  A
C1473      H1480   1.081       .  S
C1474      C1475   1.420       .  A
C1475      N1482   1.428       .  S
C1475      C1476   1.389       .  A
C1476      C1477   1.392       .  A
C1476      H1481   1.085       .  S
C1477      C1478   1.423       .  A
C1478      N1479   1.443       .  S
N1479      O1483   1.263       .  A
N1479      O1484   1.262       .  A
N1482      O1486   1.261       .  A
N1482      O1485   1.263       .  A
C1487      C1488   1.395       .  A
C1487      C1492   1.389       .  A
C1487      H1494   1.083       .  S
C1488      C1489   1.420       .  A
C1489      N1496   1.425       .  S
C1489      C1490   1.404       .  A
C1490      C1491   1.401       .  A
C1490      H1495   1.083   1_655  S
C1491      C1492   1.425       .  A
C1492      N1493   1.432       .  S
N1493      O1497   1.261       .  A
N1493      O1498   1.263       .  A
N1496      O1500   1.261       .  A
N1496      O1499   1.263   1_655  A
N1501      C1505   1.377       .  A
N1501      C1502   1.365       .  A
N1501      C1788   1.456       .  S
C1502      C1503   1.372       .  A
C1502      C1610   1.462       .  S
C1503      C1504   1.350       .  A
C1503      H1506   1.073       .  S
C1504      C1505   1.382       .  A
C1504      H1507   1.079       .  S
C1505      C1774   1.502       .  S
N1508      C1512   1.364       .  A
N1508      C1509   1.386       .  A
N1508      C1760   1.482       .  S
C1509      C1510   1.388       .  A
C1509      C1589   1.500       .  S
C1510      C1511   1.355       .  A
C1510      H1513   1.083       .  S
C1511      C1512   1.373       .  A
C1511      H1514   1.083       .  S
C1512      C1749   1.459       .  S
N1515      C1519   1.371       .  A
N1515      C1516   1.379       .  A
N1515      C1732   1.443       .  S
C1516      C1517   1.382       .  A
C1516      C2203   1.520       .  S
C1517      C1518   1.380       .  A
C1517      H1520   1.082       .  S
C1518      C1519   1.389       .  A
C1518      H1521   1.082       .  S
C1519      C1718   1.535       .  S
C1522      C1523   1.425       .  A
C1522      C1527   1.422       .  A
C1522      C1777   1.491       .  S
C1523      C1524   1.424       .  A
C1523      C1763   1.548       .  S
C1524      C1525   1.448       .  A
C1524      H1529   1.080       .  S
C1525      C1526   1.438       .  A
C1525      C1704   1.529       .  S
C1526      C1527   1.409       .  A
C1526      C1721   1.535       .  S
C1527      H1528   1.085       .  S
N1530      C1534   1.361       .  A
N1530      C1531   1.362       .  A
N1530      C1690   1.437       .  S
C1531      C1532   1.383       .  A
C1531      C1591   1.488       .  S
C1532      C1533   1.367       .  A
C1532      H1535   1.078       .  S
C1533      C1534   1.377       .  A
C1533      H1536   1.083       .  S
C1534      C1707   1.477       .  S
N1537      C1541   1.373       .  A
N1537      C1538   1.382       .  A
N1537      C1679   1.460       .  S
C1538      C1539   1.385       .  A
C1538      C1590   1.493       .  S
C1539      C1540   1.354       .  A
C1539      H1542   1.083       .  S
C1540      C1541   1.373       .  A
C1540      H1543   1.080       .  S
C1541      C1662   1.484       .  S
N1544      C1548   1.373       .  A
N1544      C1545   1.376       .  A
N1544      C1634   1.481       .  S
C1545      C1546   1.380       .  A
C1545      C1595   1.488       .  S
C1546      C1547   1.355       .  A
C1546      H1549   1.083       .  S
C1547      C1548   1.379       .  A
C1547      H1550   1.083       .  S
C1548      C1648   1.484       .  S
C1551      C1552   1.438       .  A
C1552      C1553   1.412       .  A
C1552      C1791   1.496       .  S
C1553      C1554   1.393       .  A
C1553      H1558   1.081       .  S
C1554      C1555   1.411       .  A
C1554      C1651   1.499       .  S
C1556      H1557   1.082       .  S
C1559      C1560   1.412       .  A
C1559      C1564   1.407       .  A
C1559      C1637   1.514       .  S
C1560      C1561   1.394       .  A
C1560      C1746   1.460       .  S
C1561      C1562   1.396       .  A
C1561      H1566   1.085       .  S
C1562      C1563   1.434       .  A
C1562      C1665   1.512       .  S
C1563      C1564   1.419       .  A
C1563      C1735   1.484       .  S
C1564      H2165   1.084       .  S
H1565      C2164   1.084   1_545  S
Zr1567     O1569   2.491       .  S
Zr1567     O1575   2.383       .  S
Zr1567     O1576   2.386       .  S
O1568      H1624   0.990       .  S
O1568      H1632   0.991       .  S
O1569      C1589   1.300       .  A
O1570      C1591   1.300       .  A
O1571     Zr1581   2.511   1_455  S
O1572     Zr1580   2.443       .  S
O1573      C1590   1.287       .  A
O1574     Zr1582   2.429       .  S
O1574      C1589   1.277       .  A
O1575     Zr2180   2.413       .  S
O1575     Zr1582   2.386       .  S
O1576     Zr1581   2.399       .  S
O1576     Zr1582   2.393       .  S
O1576      H1611   0.965       .  S
O1577     Zr1897   2.374       .  S
O1577      H1614   0.966       .  S
Zr1579     O1598   2.517   1_655  S
Zr1579     O1606   2.434       .  S
Zr1579     O2194   2.442       .  S
Zr1579     O1585   2.418       .  S
Zr1579     O1586   2.426       .  S
Zr1579     O2187   2.356   1_655  S
Zr1579     O1588   2.403   1_655  S
Zr1579     O1604   2.443       .  S
Zr1580     O2175   2.410   1_545  S
Zr1580     O1886   2.399   1_545  S
Zr1580     O1592   2.434       .  S
Zr1581     O1605   2.438       .  S
Zr1582     O1608   2.436       .  S
Zr1582     O1584   2.439       .  S
O1583      H1620   0.990       .  S
O1584      H1615   0.990       .  S
O1584      H1629   0.990       .  S
O1586     Zr1880   2.396       .  S
O1586      H1612   0.965       .  S
O1587     Zr2179   2.357   1_445  S
O1592      H1628   0.990       .  S
O1593      C1595   1.288       .  A
O1594     Zr2179   2.436       .  S
O1594      C1595   1.286   1_565  A
O1596     Zr1897   2.433       .  S
O1596      H1625   0.990       .  S
Zr1597     O2202   2.427       .  S
Zr1597     O1877   2.369   1_556  S
Zr1597     O1896   2.436   1_556  S
Zr1597     O2200   2.431       .  S
Zr1597     O1601   2.441       .  S
O1599      H1616   0.990       .  S
O1600     Zr2197   2.429       .  S
O1600      H1617   0.990       .  S
O1601      H1621   0.989       .  S
O1601      H1630   0.989       .  S
O1602     Zr2197   2.430       .  S
O1602      C2203   1.278       .  A
C1603      C2116   1.514       .  S
C1603      O2202   1.278       .  A
O1604      H1623   0.990       .  S
O1604      H1627   0.990       .  S
O1605      H1619   0.990       .  S
O1605      H1626   0.990       .  S
O1606      C1610   1.278       .  A
O1607      C1610   1.280       .  A
O1608      H1618   0.990       .  S
O1609      H1622   0.990       .  S
C1633      C1634   1.418       .  A
C1633      C1638   1.410   1_545  A
C1633      H1640   1.078   1_545  S
C1634      C1635   1.434       .  A
C1635      N2242   1.427       .  S
C1635      C2236   1.407       .  A
C1636      C2235   1.411       .  A
C1636      C1637   1.399       .  A
C1636      H1641   1.083       .  S
C1637      C2238   1.414       .  A
C1638      N1639   1.432       .  S
C1638      C2237   1.411   1_565  A
N1639      O1643   1.262       .  A
N1639      O1644   1.262       .  A
N1642      C2235   1.428       .  S
N1642      O1646   1.262       .  A
N1642      O1645   1.263       .  A
C1647      C1648   1.401       .  A
C1647      C1652   1.400       .  A
C1647      H1654   1.084       .  S
C1648      C1649   1.411       .  A
C1649      N1656   1.429       .  S
C1649      C1650   1.405       .  A
C1650      C1651   1.407       .  A
C1650      H1655   1.084       .  S
C1651      C1652   1.415       .  A
C1652      N1653   1.431       .  S
N1653      O1657   1.262       .  A
N1653      O1658   1.262       .  A
N1656      O1660   1.262       .  A
N1656      O1659   1.262       .  A
C1661      C1662   1.408       .  A
C1661      C1666   1.414       .  A
C1661      H1668   1.084       .  S
C1662      C1663   1.410       .  A
C1663      N1670   1.432       .  S
C1663      C1664   1.400       .  A
C1664      C1665   1.412       .  A
C1664      H1669   1.083       .  S
C1665      C1666   1.410       .  A
C1666      N1667   1.430       .  S
N1667      O1671   1.261       .  A
N1667      O1672   1.263       .  A
N1670      O1674   1.262       .  A
N1670      O1673   1.262       .  A
C1675      C1680   1.418       .  A
C1675      H1682   1.083       .  S
C1676      C1677   1.425       .  A
C1677      N1684   1.429       .  S
C1677      C1678   1.403       .  A
C1678      C1679   1.396       .  A
C1678      H1683   1.079       .  S
C1680      N1681   1.422       .  S
N1681      O1685   1.260       .  A
N1681      O1686   1.262       .  A
N1684      O1688   1.261       .  A
N1684      O1687   1.262       .  A
C1689      C1690   1.400       .  A
C1689      C1694   1.401       .  A
C1689      H1696   1.083       .  S
C1691      N1698   1.428       .  S
C1691      C1692   1.399       .  A
C1692      H1697   1.084   1_455  S
C1693      C1694   1.415       .  A
C1694      N1695   1.430       .  S
N1695      O1699   1.261       .  A
N1695      O1700   1.262       .  A
N1698      O1702   1.262       .  A
N1698      O1701   1.261   1_455  A
C1703      C1704   1.417       .  A
C1703      C1708   1.407       .  A
C1703      H1710   1.081       .  S
C1704      C1705   1.433       .  A
C1705      N1712   1.429       .  S
C1705      C1706   1.396       .  A
C1706      C1707   1.386       .  A
C1706      H1711   1.085       .  S
C1707      C1708   1.404       .  A
C1708      N1709   1.426       .  S
N1709      O1713   1.260       .  A
N1709      O1714   1.262       .  A
N1712      O1716   1.260       .  A
N1712      O1715   1.264       .  A
C1717      C1718   1.416       .  A
C1717      C1722   1.430       .  A
C1717      H1724   1.081       .  S
C1718      C1719   1.422       .  A
C1719      N1726   1.430       .  S
C1719      C1720   1.415       .  A
C1720      C1721   1.406       .  A
C1720      H1725   1.084       .  S
C1721      C1722   1.425       .  A
C1722      N1723   1.432       .  S
N1723      O1727   1.261       .  A
N1723      O1728   1.262       .  A
N1726      O1730   1.260       .  A
N1726      O1729   1.263       .  A
C1731      C2332   1.405       .  A
C1731      C1736   1.397       .  A
C1731      H1738   1.083       .  S
C1732      C2331   1.409       .  A
C1732      C1733   1.408       .  A
C1733      N1740   1.439       .  S
C1733      C1734   1.411       .  A
C1734      C2335   1.406   1_545  A
C1734      H1739   1.083       .  S
C1735      C2334   1.408       .  A
C1735      C1736   1.407       .  A
C1736      N1737   1.431       .  S
N1737      O1741   1.259       .  A
N1737      O1742   1.262       .  A
N1740      O1744   1.263       .  A
N1740      O1743   1.262       .  A
C1745      C1746   1.393       .  A
C1745      C1750   1.392       .  A
C1745      H1752   1.084       .  S
C1746      C1747   1.411       .  A
C1747      N1754   1.431       .  S
C1747      C1748   1.391       .  A
C1748      C1749   1.398       .  A
C1748      H1753   1.084       .  S
C1749      C1750   1.400       .  A
C1750      N1751   1.418       .  S
N1751      O1755   1.260       .  A
N1751      O1756   1.260       .  A
N1754      O1758   1.262       .  A
N1754      O2357   1.262       .  A
O1757      N2354   1.262   1_545  A
C1759      C1760   1.418       .  A
C1759      C1764   1.425       .  A
C1759      H1766   1.081       .  S
C1760      C1761   1.414       .  A
C1761      N1768   1.419       .  S
C1761      C1762   1.422       .  A
C1762      C1763   1.410       .  A
C1762      H1767   1.077       .  S
C1763      C1764   1.421       .  A
C1764      N1765   1.427       .  S
N1765      O1769   1.262       .  A
N1765      O1770   1.262       .  A
N1768      O1772   1.262       .  A
N1768      O1771   1.260       .  A
C1773      C1774   1.409       .  A
C1773      C1778   1.415       .  A
C1773      H1780   1.082       .  S
C1774      C1775   1.417       .  A
C1775      N1782   1.429       .  S
C1775      C1776   1.388       .  A
C1776      C1777   1.395       .  A
C1776      H1781   1.085       .  S
C1777      C1778   1.423       .  A
C1778      N1779   1.441       .  S
N1779      O1783   1.263       .  A
N1779      O1784   1.262       .  A
N1782      O1786   1.262       .  A
N1782      O1785   1.263       .  A
C1787      C1788   1.403       .  A
C1787      C1792   1.394       .  A
C1787      H1794   1.082       .  S
C1788      C1789   1.423       .  A
C1789      N1796   1.423       .  S
C1789      C1790   1.401       .  A
C1790      C1791   1.399       .  A
C1790      H1795   1.083   1_655  S
C1791      C1792   1.419       .  A
C1792      N1793   1.432       .  S
N1793      O1797   1.261       .  A
N1793      O1798   1.263       .  A
N1796      O1800   1.261       .  A
N1796      O1799   1.263   1_655  A
N1801      C1805   1.382       .  A
N1801      C1802   1.370       .  A
N1801      C2088   1.457       .  S
C1802      C1803   1.371       .  A
C1802      C1910   1.471       .  S
C1803      C1804   1.350       .  A
C1803      H1806   1.075       .  S
C1804      C1805   1.382       .  A
C1804      H1807   1.078       .  S
C1805      C2074   1.515       .  S
N1808      C1812   1.364       .  A
N1808      C1809   1.379       .  A
N1808      C2060   1.475       .  S
C1809      C1810   1.388       .  A
C1809      C1889   1.500       .  S
C1810      C1811   1.358       .  A
C1810      H1813   1.083       .  S
C1811      C1812   1.375       .  A
C1811      H1814   1.083       .  S
C1812      C2049   1.464       .  S
N1815      C1819   1.368       .  A
N1815      C1816   1.377       .  A
N1815      C2032   1.441       .  S
C1816      C1817   1.381       .  A
C1817      C1818   1.380       .  A
C1817      H1820   1.082       .  S
C1818      C1819   1.390       .  A
C1818      H1821   1.081       .  S
C1819      C2018   1.534       .  S
C1822      C1823   1.427       .  A
C1822      C1827   1.425       .  A
C1822      C2077   1.504       .  S
C1823      C1824   1.420       .  A
C1823      C2063   1.535       .  S
C1824      C1825   1.440       .  A
C1824      H1829   1.081       .  S
C1825      C1826   1.435       .  A
C1825      C2004   1.528       .  S
C1826      C1827   1.414       .  A
C1826      C2021   1.530       .  S
C1827      H1828   1.084       .  S
N1830      C1834   1.361       .  A
N1830      C1831   1.361       .  A
N1830      C1990   1.437       .  S
C1831      C1832   1.383       .  A
C1831      C1891   1.488       .  S
C1832      C1833   1.367       .  A
C1832      H1835   1.078       .  S
C1833      C1834   1.376       .  A
C1833      H1836   1.083       .  S
C1834      C2007   1.477       .  S
N1837      C1841   1.372       .  A
N1837      C1838   1.382       .  A
N1837      C1979   1.464       .  S
C1838      C1839   1.385       .  A
C1838      C1890   1.488       .  S
C1839      C1840   1.349       .  A
C1839      H1842   1.083       .  S
C1840      C1841   1.373       .  A
C1840      H1843   1.081       .  S
C1841      C1962   1.477       .  S
N1844      C1848   1.372       .  A
N1844      C1845   1.376       .  A
N1844      C1934   1.477       .  S
C1845      C1846   1.381       .  A
C1845      C1895   1.490       .  S
C1846      C1847   1.356       .  A
C1846      H1849   1.083       .  S
C1847      C1848   1.378       .  A
C1847      H1850   1.083       .  S
C1848      C1948   1.482       .  S
C1851      C1852   1.439       .  A
C1852      C1853   1.411       .  A
C1852      C2091   1.502       .  S
C1853      C1854   1.392       .  A
C1853      H1858   1.081       .  S
C1854      C1855   1.411       .  A
C1854      C1951   1.497       .  S
C1856      H1857   1.083       .  S
C1859      C1860   1.413       .  A
C1859      C1864   1.408       .  A
C1859      C1937   1.505       .  S
C1860      C1861   1.395       .  A
C1860      C2046   1.467       .  S
C1861      C1862   1.398       .  A
C1861      H1866   1.086       .  S
C1862      C1863   1.428       .  A
C1862      C1965   1.502       .  S
C1863      C1864   1.413       .  A
C1863      C2035   1.484       .  S
Zr1867     O1869   2.465       .  S
Zr1867     O1875   2.381       .  S
Zr1867     O1876   2.383       .  S
O1868      H1924   0.990       .  S
O1868      H1932   0.991       .  S
O1869      C1889   1.294       .  A
O1870      C1891   1.297       .  A
O1871     Zr1881   2.484   1_455  S
O1872     Zr1880   2.435   1_554  S
O1873      C1890   1.285       .  A
O1874     Zr1882   2.446       .  S
O1874      C1889   1.280       .  A
O1875     Zr1882   2.385       .  S
O1876     Zr1881   2.400       .  S
O1876     Zr1882   2.389       .  S
O1876      H1911   0.965       .  S
O1877      H1914   0.914       .  S
O1878     Zr2197   2.407   1_564  S
Zr1879     O1898   2.532   1_655  S
Zr1879     O1906   2.442       .  S
Zr1879     O1885   2.426       .  S
Zr1879     O1886   2.430       .  S
Zr1879     O1888   2.399   1_655  S
Zr1879     O1904   2.442       .  S
Zr1880     O2193   2.468       .  S
Zr1880     O2187   2.409   1_655  S
Zr1880     O1892   2.435   1_556  S
Zr1881     O2207   2.442   1_554  S
Zr1881     O2185   2.402   1_554  S
Zr1881     O2188   2.426   1_654  S
Zr1881     O1905   2.438       .  S
Zr1882     O2185   2.396   1_554  S
Zr1882     O2186   2.413   1_554  S
Zr1882     O1908   2.435       .  S
Zr1882     O2209   2.441   1_554  S
Zr1882     O1884   2.438       .  S
O1883      H1920   0.990       .  S
O1884      H1915   0.990       .  S
O1884      H1929   0.990       .  S
O1885     Zr2181   2.407       .  S
O1885     Zr2182   2.397       .  S
O1886     Zr2182   2.412       .  S
O1886      H1912   0.965       .  S
O1887     Zr2180   2.406   1_455  S
O1888     Zr2181   2.428   1_455  S
O1892      H1928   0.990   1_554  S
O1893     Zr2180   2.462       .  S
O1893      C1895   1.288       .  A
O1894      C1895   1.288       .  A
O1896      H1925   0.990       .  S
Zr1897     O2178   2.403   1_545  S
Zr1897     O1901   2.438   1_545  S
O1899      H1916   0.990       .  S
O1899      H2231   0.990       .  S
O1900      H1917   0.990       .  S
O1901      H1921   0.989       .  S
O1901      H1930   0.989       .  S
O1904      H1923   0.991       .  S
O1904      H1927   0.990       .  S
O1905      H1919   0.990       .  S
O1905      H1926   0.989       .  S
O1906      C1910   1.281       .  A
O1907     Zr2181   2.447       .  S
O1907      C1910   1.285       .  A
O1908      H1918   0.990       .  S
O1909     Zr2182   2.440       .  S
O1909      H1922   0.990       .  S
H1931      O2199   0.990       .  S
C1933      C1934   1.416       .  A
C1933      C1938   1.409       .  A
C1933      H1940   1.080       .  S
C1934      C1935   1.432       .  A
C1936      C1937   1.397   1_545  A
C1936      H1941   1.083       .  S
C1938      N1939   1.431       .  S
N1939      O1943   1.262       .  A
N1939      O1944   1.262       .  A
N1942      O1946   1.261       .  A
N1942      O1945   1.263       .  A
C1947      C1948   1.402       .  A
C1947      C1952   1.401       .  A
C1947      H1954   1.084       .  S
C1948      C1949   1.411       .  A
C1949      N1956   1.430       .  S
C1949      C1950   1.403       .  A
C1950      C1951   1.407       .  A
C1950      H1955   1.084       .  S
C1951      C1952   1.414       .  A
C1952      N1953   1.430       .  S
N1953      O1957   1.262       .  A
N1953      O1958   1.262       .  A
N1956      O1960   1.262       .  A
N1956      O1959   1.261       .  A
C1961      C1962   1.406       .  A
C1961      C1966   1.414       .  A
C1961      H1968   1.084       .  S
C1962      C1963   1.412       .  A
C1963      N1970   1.438       .  S
C1963      C1964   1.396       .  A
C1964      C1965   1.408       .  A
C1964      H1969   1.084       .  S
C1965      C1966   1.416       .  A
C1966      N1967   1.438       .  S
N1967      O1971   1.262       .  A
N1967      O1972   1.263       .  A
N1970      O1974   1.260       .  A
N1970      O1973   1.262       .  A
C1975      C1980   1.423   1_655  A
C1975      H1982   1.082       .  S
C1976      C1977   1.420       .  A
C1977      N1984   1.430       .  S
C1977      C1978   1.400       .  A
C1978      C1979   1.400       .  A
C1978      H1983   1.072       .  S
C1980      N1981   1.425   1_455  S
N1981      O1985   1.260       .  A
N1981      O1986   1.262       .  A
N1984      O1988   1.262       .  A
N1984      O1987   1.262       .  A
C1989      C1990   1.401       .  A
C1989      C1994   1.401       .  A
C1989      H1996   1.082       .  S
C1991      N1998   1.427       .  S
C1991      C1992   1.405   1_455  A
C1992      H1997   1.084       .  S
C1993      C1994   1.412       .  A
C1994      N1995   1.430       .  S
N1995      O1999   1.261       .  A
N1995      O2000   1.262       .  A
N1998      O2002   1.262       .  A
N1998      O2001   1.262   1_455  A
C2003      C2004   1.418       .  A
C2003      C2008   1.407       .  A
C2003      H2010   1.081       .  S
C2004      C2005   1.432       .  A
C2005      N2012   1.430       .  S
C2005      C2006   1.398       .  A
C2006      C2007   1.387       .  A
C2006      H2011   1.085       .  S
C2007      C2008   1.403       .  A
C2008      N2009   1.427       .  S
N2009      O2013   1.261       .  A
N2009      O2014   1.262       .  A
N2012      O2016   1.260       .  A
N2012      O2015   1.264       .  A
C2017      C2018   1.417       .  A
C2017      C2022   1.427       .  A
C2017      H2024   1.078       .  S
C2018      C2019   1.419       .  A
C2019      N2026   1.428       .  S
C2019      C2020   1.413       .  A
C2020      C2021   1.406       .  A
C2020      H2025   1.084       .  S
C2021      C2022   1.423       .  A
C2022      N2023   1.432       .  S
N2023      O2027   1.261       .  A
N2023      O2028   1.262       .  A
N2026      O2030   1.259       .  A
N2026      O2029   1.263       .  A
C2031      C2036   1.398       .  A
C2031      H2038   1.083       .  S
C2032      C2033   1.408       .  A
C2033      N2040   1.437       .  S
C2033      C2034   1.410       .  A
C2034      H2039   1.083       .  S
C2035      C2036   1.406   1_565  A
C2036      N2037   1.430       .  S
N2037      O2041   1.258   1_545  A
N2037      O2042   1.262       .  A
N2040      O2044   1.263       .  A
N2040      O2043   1.262       .  A
C2045      C2046   1.396       .  A
C2045      C2050   1.395       .  A
C2045      H2052   1.084       .  S
C2046      C2047   1.411       .  A
C2047      N2054   1.431       .  S
C2047      C2048   1.392       .  A
C2048      C2049   1.398       .  A
C2048      H2053   1.084       .  S
C2049      C2050   1.401       .  A
C2050      N2051   1.419       .  S
N2051      O2055   1.260       .  A
N2051      O2056   1.259       .  A
N2054      O2058   1.262       .  A
C2059      C2060   1.415       .  A
C2059      C2064   1.419       .  A
C2059      H2066   1.082       .  S
C2060      C2061   1.417       .  A
C2061      N2068   1.423       .  S
C2061      C2062   1.419       .  A
C2062      C2063   1.408       .  A
C2062      H2067   1.078       .  S
C2063      C2064   1.417       .  A
C2064      N2065   1.428       .  S
N2065      O2069   1.261       .  A
N2065      O2070   1.262       .  A
N2068      O2072   1.262       .  A
N2068      O2071   1.260       .  A
C2073      C2074   1.410       .  A
C2073      C2078   1.420       .  A
C2073      H2080   1.082       .  S
C2074      C2075   1.421       .  A
C2075      N2082   1.428       .  S
C2075      C2076   1.392       .  A
C2076      C2077   1.396       .  A
C2076      H2081   1.085       .  S
C2077      C2078   1.426       .  A
C2078      N2079   1.442       .  S
N2079      O2083   1.263       .  A
N2079      O2084   1.262       .  A
N2082      O2086   1.262       .  A
N2082      O2085   1.263       .  A
C2087      C2088   1.400       .  A
C2087      C2092   1.391       .  A
C2087      H2094   1.083       .  S
C2088      C2089   1.422       .  A
C2089      N2096   1.424       .  S
C2089      C2090   1.407       .  A
C2090      C2091   1.403       .  A
C2090      H2095   1.083   1_655  S
C2091      C2092   1.422       .  A
C2092      N2093   1.433       .  S
N2093      O2097   1.261       .  A
N2093      O2098   1.263       .  A
N2096      O2100   1.261       .  A
N2096      O2099   1.263   1_655  A
N2101      C2105   1.380       .  A
N2101      C2102   1.366       .  A
N2101      C2388   1.452       .  S
C2102      C2103   1.370       .  A
C2102      C2210   1.468       .  S
C2103      C2104   1.351       .  A
C2103      H2106   1.074       .  S
C2104      C2105   1.383       .  A
C2104      H2107   1.076       .  S
C2105      C2374   1.514       .  S
N2108      C2112   1.364       .  A
N2108      C2109   1.379       .  A
N2108      C2360   1.474       .  S
C2109      C2110   1.387       .  A
C2109      C2189   1.499       .  S
C2110      C2111   1.359       .  A
C2110      H2113   1.083       .  S
C2111      C2112   1.376       .  A
C2111      H2114   1.083       .  S
C2112      C2349   1.465       .  S
N2115      C2119   1.367       .  A
N2115      C2116   1.374       .  A
N2115      C2332   1.437       .  S
C2116      C2117   1.382       .  A
C2117      C2118   1.381       .  A
C2117      H2120   1.082       .  S
C2118      C2119   1.390       .  A
C2118      H2121   1.082       .  S
C2119      C2318   1.532       .  S
C2122      C2123   1.424       .  A
C2122      C2127   1.424       .  A
C2122      C2377   1.498       .  S
C2123      C2124   1.420       .  A
C2123      C2363   1.535       .  S
C2124      C2125   1.440       .  A
C2124      H2129   1.081       .  S
C2125      C2126   1.435       .  A
C2125      C2304   1.529       .  S
C2126      C2127   1.413       .  A
C2126      C2321   1.528       .  S
C2127      H2128   1.084       .  S
N2130      C2134   1.364       .  A
N2130      C2131   1.366       .  A
N2130      C2290   1.441       .  S
C2131      C2132   1.383       .  A
C2131      C2191   1.492       .  S
C2132      C2133   1.364       .  A
C2132      H2135   1.076       .  S
C2133      C2134   1.376       .  A
C2133      H2136   1.083       .  S
C2134      C2307   1.479       .  S
N2137      C2141   1.372       .  A
N2137      C2138   1.382       .  A
N2137      C2279   1.462       .  S
C2138      C2139   1.386       .  A
C2138      C2190   1.491       .  S
C2139      C2140   1.350       .  A
C2139      H2142   1.083       .  S
C2140      C2141   1.372       .  A
C2140      H2143   1.079       .  S
C2141      C2262   1.477       .  S
N2144      C2148   1.375       .  A
N2144      C2145   1.378       .  A
N2144      C2234   1.481       .  S
C2145      C2146   1.380       .  A
C2145      C2195   1.491       .  S
C2146      C2147   1.355       .  A
C2146      H2149   1.083       .  S
C2147      C2148   1.379       .  A
C2147      H2150   1.083       .  S
C2148      C2248   1.486       .  S
C2151      C2152   1.438       .  A
C2152      C2153   1.410       .  A
C2152      C2391   1.497       .  S
C2153      C2154   1.391       .  A
C2153      H2158   1.081       .  S
C2154      C2155   1.411       .  A
C2154      C2251   1.500       .  S
C2156      H2157   1.081       .  S
C2159      C2160   1.413       .  A
C2159      C2164   1.407       .  A
C2159      C2237   1.506   1_565  S
C2160      C2161   1.393       .  A
C2160      C2346   1.464       .  S
C2161      C2162   1.396       .  A
C2161      H2166   1.086       .  S
C2162      C2163   1.431       .  A
C2162      C2265   1.500       .  S
C2163      C2164   1.415       .  A
C2163      C2335   1.488       .  S
Zr2167     O2169   2.471       .  S
Zr2167     O2175   2.385       .  S
Zr2167     O2176   2.385       .  S
O2168      H2224   0.990       .  S
O2168      H2232   0.991       .  S
O2169      C2189   1.295       .  A
O2170      C2191   1.298       .  A
O2171     Zr2181   2.490   1_455  S
O2172     Zr2180   2.442       .  S
O2173      C2190   1.288       .  A
O2174     Zr2182   2.441       .  S
O2174      C2189   1.279       .  A
O2175     Zr2182   2.388       .  S
O2176     Zr2181   2.397       .  S
O2176     Zr2182   2.389       .  S
O2176      H2211   0.965       .  S
O2177      H2214   0.992       .  S
Zr2179     O2198   2.519   1_655  S
Zr2179     O2206   2.436       .  S
Zr2179     O2185   2.420       .  S
Zr2179     O2186   2.428       .  S
Zr2179     O2188   2.399   1_655  S
Zr2179     O2204   2.443       .  S
Zr2180     O2192   2.436       .  S
Zr2181     O2205   2.438       .  S
Zr2182     O2208   2.434       .  S
Zr2182     O2184   2.437       .  S
O2183      H2220   0.990   1_556  S
O2184      H2215   0.990       .  S
O2184      H2229   0.990       .  S
O2186      H2212   0.965       .  S
O2192      H2228   0.990       .  S
O2193      C2195   1.288       .  A
O2194      C2195   1.288       .  A
O2196      H2225   0.990       .  S
Zr2197     O2201   2.438   1_545  S
O2199      H2216   0.990       .  S
O2200      H2217   0.991       .  S
O2201      H2221   0.990       .  S
O2201      H2230   0.988       .  S
O2204      H2223   0.991       .  S
O2204      H2227   0.990       .  S
O2205      H2219   0.990       .  S
O2205      H2226   0.990       .  S
O2206      C2210   1.278       .  A
O2207      C2210   1.283       .  A
O2208      H2218   0.989       .  S
O2209      H2222   0.990   1_556  S
C2233      C2234   1.416       .  A
C2233      C2238   1.410       .  A
C2233      H2240   1.078       .  S
C2234      C2235   1.432       .  A
C2236      C2237   1.396       .  A
C2236      H2241   1.084       .  S
C2238      N2239   1.431       .  S
N2239      O2243   1.262       .  A
N2239      O2244   1.262       .  A
N2242      O2246   1.261       .  A
N2242      O2245   1.263       .  A
C2247      C2248   1.403       .  A
C2247      C2252   1.402       .  A
C2247      H2254   1.084       .  S
C2248      C2249   1.411       .  A
C2249      N2256   1.429       .  S
C2249      C2250   1.404       .  A
C2250      C2251   1.407       .  A
C2250      H2255   1.084       .  S
C2251      C2252   1.414       .  A
C2252      N2253   1.430       .  S
N2253      O2257   1.262       .  A
N2253      O2258   1.262       .  A
N2256      O2260   1.262       .  A
N2256      O2259   1.262       .  A
C2261      C2262   1.409       .  A
C2261      C2266   1.409       .  A
C2261      H2268   1.084       .  S
C2262      C2263   1.412       .  A
C2263      N2270   1.433       .  S
C2263      C2264   1.398       .  A
C2264      C2265   1.407       .  A
C2264      H2269   1.084       .  S
C2265      C2266   1.407       .  A
C2266      N2267   1.428       .  S
N2267      O2271   1.261       .  A
N2267      O2272   1.263       .  A
N2270      O2274   1.262       .  A
N2270      O2273   1.262       .  A
C2275      C2280   1.424   1_655  A
C2275      H2282   1.082       .  S
C2276      C2277   1.426       .  A
C2277      N2284   1.429       .  S
C2277      C2278   1.406       .  A
C2278      C2279   1.398       .  A
C2278      H2283   1.078       .  S
C2280      N2281   1.425   1_455  S
N2281      O2285   1.260       .  A
N2281      O2286   1.262       .  A
N2284      O2288   1.261       .  A
N2284      O2287   1.262       .  A
C2289      C2290   1.402       .  A
C2289      C2294   1.401       .  A
C2289      H2296   1.083       .  S
C2291      N2298   1.428       .  S
C2291      C2292   1.402   1_455  A
C2292      H2297   1.084       .  S
C2293      C2294   1.413       .  A
C2294      N2295   1.430       .  S
N2295      O2299   1.261       .  A
N2295      O2300   1.262       .  A
N2298      O2302   1.262       .  A
N2298      O2301   1.261   1_455  A
C2303      C2304   1.418       .  A
C2303      C2308   1.408       .  A
C2303      H2310   1.081       .  S
C2304      C2305   1.432       .  A
C2305      N2312   1.430       .  S
C2305      C2306   1.397       .  A
C2306      C2307   1.388       .  A
C2306      H2311   1.085       .  S
C2307      C2308   1.404       .  A
C2308      N2309   1.427       .  S
N2309      O2313   1.261       .  A
N2309      O2314   1.262       .  A
N2312      O2316   1.260       .  A
N2312      O2315   1.264       .  A
C2317      C2318   1.417       .  A
C2317      C2322   1.427       .  A
C2317      H2324   1.080       .  S
C2318      C2319   1.420       .  A
C2319      N2326   1.430       .  S
C2319      C2320   1.412       .  A
C2320      C2321   1.405       .  A
C2320      H2325   1.084       .  S
C2321      C2322   1.423       .  A
C2322      N2323   1.432       .  S
N2323      O2327   1.261       .  A
N2323      O2328   1.261       .  A
N2326      O2330   1.260       .  A
N2326      O2329   1.263       .  A
C2331      C2336   1.402       .  A
C2331      H2338   1.083       .  S
C2332      C2333   1.405       .  A
C2333      N2340   1.439       .  S
C2333      C2334   1.409       .  A
C2334      H2339   1.083       .  S
C2335      C2336   1.407   1_565  A
C2336      N2337   1.432       .  S
N2337      O2341   1.260   1_545  A
N2337      O2342   1.263       .  A
N2340      O2344   1.263       .  A
N2340      O2343   1.262       .  A
C2345      C2346   1.395       .  A
C2345      C2350   1.395       .  A
C2345      H2352   1.084       .  S
C2346      C2347   1.410       .  A
C2347      N2354   1.431       .  S
C2347      C2348   1.391       .  A
C2348      C2349   1.399       .  A
C2348      H2353   1.084       .  S
C2349      C2350   1.402       .  A
C2350      N2351   1.419       .  S
N2351      O2355   1.260       .  A
N2351      O2356   1.259       .  A
N2354      O2358   1.262       .  A
C2359      C2360   1.416       .  A
C2359      C2364   1.419       .  A
C2359      H2366   1.081       .  S
C2360      C2361   1.416       .  A
C2361      N2368   1.423       .  S
C2361      C2362   1.419       .  A
C2362      C2363   1.409       .  A
C2362      H2367   1.078       .  S
C2363      C2364   1.417       .  A
C2364      N2365   1.428       .  S
N2365      O2369   1.261       .  A
N2365      O2370   1.262       .  A
N2368      O2372   1.262       .  A
N2368      O2371   1.261       .  A
C2373      C2374   1.412       .  A
C2373      C2378   1.420       .  A
C2373      H2380   1.081       .  S
C2374      C2375   1.421       .  A
C2375      N2382   1.428       .  S
C2375      C2376   1.389       .  A
C2376      C2377   1.393       .  A
C2376      H2381   1.085       .  S
C2377      C2378   1.425       .  A
C2378      N2379   1.442       .  S
N2379      O2383   1.263       .  A
N2379      O2384   1.262       .  A
N2382      O2386   1.261       .  A
N2382      O2385   1.263       .  A
C2387      C2388   1.398       .  A
C2387      C2392   1.390       .  A
C2387      H2394   1.083       .  S
C2388      C2389   1.421       .  A
C2389      N2396   1.424       .  S
C2389      C2390   1.405       .  A
C2390      C2391   1.402       .  A
C2390      H2395   1.083   1_655  S
C2391      C2392   1.423       .  A
C2392      N2393   1.432       .  S
N2393      O2397   1.261       .  A
N2393      O2398   1.263       .  A
N2396      O2400   1.261       .  A
N2396      O2399   1.263   1_655  A
