geometry optimzed in LAMMPS
_audit_creation_date              2020-11-30 
_audit_creation_method            'lammps2cif' 
_symmetry_space_group_name_H-M    'P1' 
_symmetry_Int_Tables_number       1 
_symmetry_cell_setting            triclinic 
loop_ 
_symmetry_equiv_pos_as_xyz 
  x,y,z 
_cell_length_a                    51.13602938 
_cell_length_b                    51.35840025442536 
_cell_length_c                    44.23182680312147 
_cell_angle_alpha                 90.07841861953895 
_cell_angle_beta                  89.87451501901836 
_cell_angle_gamma                 120.22016921224424 
loop_ 
_atom_site_label 
_atom_site_type_symbol 
_atom_site_fract_x 
_atom_site_fract_y 
_atom_site_fract_z 
_atom_site_charge 
C1          C  0.22378186  0.22059837  0.15140423     0.79800
N2          N  0.22439204  0.21973075  0.12069871    -0.78500
C3          C  0.24707939  0.24272167  0.10496757     0.82300
N4          N  0.26935638  0.26665028  0.12001964    -0.78400
C5          C  0.26885574  0.26791110  0.15060626     0.82400
N6          N  0.24611021  0.24485267  0.16611638    -0.80100
C7          C  0.22448328  0.22027420  0.02530095     0.79800
N8          N  0.24678184  0.24454023  0.01075662    -0.78500
C9          C  0.26920242  0.26773854  0.02624836     0.82300
N10         N  0.26947100  0.26659766  0.05682744    -0.78400
C11         C  0.24717375  0.24257952  0.07183218     0.82400
N12         N  0.22461808  0.21936809  0.05604489    -0.80100
C13         C  0.23698199  0.45903207  0.14806020     0.79800
N14         N  0.23447526  0.45449813  0.11765742    -0.78500
C15         C  0.21061160  0.45285542  0.10240696     0.82300
N16         N  0.18905943  0.45563765  0.11770445    -0.78400
C17         C  0.19149836  0.46049089  0.14800078     0.82400
N18         N  0.21550841  0.46226052  0.16297177    -0.80100
C19         C  0.22990146  0.44607239  0.02310213     0.79800
N20         N  0.23092775  0.44803012  0.05376381    -0.78500
C21         C  0.20879944  0.44952106  0.06935064     0.82300
N22         N  0.18585713  0.44968256  0.05409261    -0.78400
C23         C  0.18473997  0.44823069  0.02341903     0.82400
N24         N  0.20681553  0.44628850  0.00812094    -0.80100
C25         C  0.50027046  0.24469644  0.14884628     0.79800
N26         N  0.50037742  0.22158750  0.16360007    -0.78500
C27         C  0.50155525  0.19934854  0.14822586     0.82300
N28         N  0.50236476  0.20016245  0.11760206    -0.78400
C29         C  0.50262985  0.22327001  0.10240552     0.82400
N30         N  0.50175008  0.24569384  0.11807575    -0.80100
C31         C  0.50834878  0.24750325  0.02240224     0.79800
N32         N  0.50590269  0.24702003  0.05308440    -0.78500
C33         C  0.50436546  0.22375414  0.06920380     0.82300
N34         N  0.50491126  0.20076090  0.05451928    -0.78400
C35         C  0.50712876  0.20083837  0.02395275     0.82400
N36         N  0.50891424  0.22432093  0.00812555    -0.80100
O37         O  0.01095101  0.41065099  0.36834716    -0.88600
C38         C  0.07228965  0.06224013  0.29105208     1.11500
O39         O  0.49131007  0.44909912  0.33496171    -1.36400
O40         O  0.07861034  0.04148065  0.36885961    -0.90000
O41         O  0.47071201  0.38990939  0.36994410    -0.90700
O42         O  0.45769277  0.44731563  0.39785265    -0.79500
O43         O  0.04453451  0.47739785  0.36381865    -1.01600
C44         C  0.48673116  0.03454088  0.39026649     1.21500
O45         O  0.45535891  0.47569669  0.33384083    -1.36500
Mn46       Mn  0.48861244  0.47860707  0.30167922     1.82100
O47         O  0.48785055  0.01191119  0.39879913    -0.78600
O48         O  0.05357310  0.06662288  0.36962220    -0.88000
C49         C  0.48522483  0.03187595  0.27953678     1.12600
C50         C  0.07415566  0.06200514  0.37951474     1.07300
O51         O  0.45874801  0.44598368  0.27100916    -0.79500
O52         O  0.01715713  0.00707767  0.33580707    -1.33200
O53         O  0.43217795  0.41662697  0.30629331    -0.98800
C54         C  0.39722377  0.47042579  0.37818407     1.06000
Mn55       Mn  0.02018745  0.04973684  0.33664778     1.48600
O56         O  0.39420300  0.44608483  0.36740950    -0.88000
Mn57       Mn  0.45345615  0.40484781  0.33527680     1.49600
O58         O  0.01093235  0.41174496  0.30046534    -0.91800
C59         C  0.03984440  0.47667835  0.39087905     1.21400
C60         C  0.49783316  0.39643945  0.29158736     1.11300
Mn61       Mn  0.48797638  0.47914188  0.36699855     1.81000
O62         O  0.48493353  0.03653505  0.30647520    -0.97000
Mn63       Mn  0.02588137  0.44401214  0.33497108     1.49300
C64         C  0.49657711  0.39672349  0.38036804     1.07800
Mn65       Mn  0.45139675  0.01758389  0.33553461     1.49900
C66         C  0.39707412  0.46919930  0.28844755     1.10700
O67         O  0.43147875  0.41721745  0.36303970    -1.02800
O68         O  0.05237218  0.06720110  0.30239036    -0.92400
C69         C  0.43514300  0.42294114  0.38999784     1.22000
O70         O  0.48584339  0.03826162  0.36316843    -1.03200
O71         O  0.07707465  0.04171560  0.30081895    -0.90600
O72         O  0.41765220  0.00061791  0.30231125    -0.90200
O73         O  0.47178892  0.38948623  0.30183305    -0.90200
Mn74       Mn  0.05939770  0.00863362  0.33462206     1.47900
O75         O  0.48586179  0.00870344  0.27178454    -0.78700
C76         C  0.43631752  0.42163045  0.27930278     1.15100
O77         O  0.01635295  0.47652998  0.39925872    -0.77400
O78         O  0.01687560  0.47829350  0.27191657    -0.77000
Mn79       Mn  0.41441046  0.43323896  0.33393423     1.51100
O80         O  0.41867281  0.00264790  0.37009605    -0.89400
O81         O  0.04472103  0.47819558  0.30710674    -0.96900
O82         O  0.39431584  0.44498092  0.29922806    -0.91900
C83         C  0.04009574  0.47784357  0.28003736     1.12800
C84         C  0.48772741  0.05690035  0.41209618    -0.20300
C85         C  0.48071523  0.07909037  0.40314841     0.36000
C86         C  0.48398591  0.10117928  0.42371853    -0.26200
C87         C  0.49435763  0.10188952  0.45311764     0.02400
C88         C  0.00032045  0.07499725  0.46559139     0.27200
C89         C  0.99646161  0.05229752  0.44499548    -0.25400
N90         N  0.47030046  0.07942986  0.37318467    -0.82700
H91         H  0.47854591  0.11809439  0.41660299     0.13000
C92         C  0.49807411  0.12636909  0.47342740     0.02400
N93         N  0.00935121  0.07453894  0.49623623    -0.81300
H94         H  0.00043261  0.03449548  0.45243774     0.17800
C95         C  0.47983315  0.11926147  0.49924143    -0.26200
C96         C  0.49144403  0.14564661  0.01832140     0.35900
C97         C  0.50758462  0.17569157  0.00773934    -0.20200
C98         C  0.51709414  0.17950122  0.48262288    -0.25400
C99         C  0.51749200  0.15676107  0.46546875     0.27200
H100        H  0.47709987  0.09923764  0.00854028     0.13000
N101        N  0.47464090  0.13845120  0.04600799    -0.82700
H102        H  0.53151616  0.20285109  0.47610957     0.17900
N103        N  0.53725718  0.16430944  0.43976719    -0.81300
H104        H  0.45194055  0.12314975  0.04116430     0.33500
H105        H  0.48261759  0.12777688  0.06029193     0.38000
H106        H  0.54941523  0.18762948  0.43643467     0.33400
H107        H  0.55319724  0.15795247  0.44491133     0.30100
H108        H  0.01166098  0.05569121  0.49991045     0.33500
H109        H  0.03080372  0.09348009  0.49925443     0.30100
H110        H  0.48537885  0.10017891  0.36331658     0.38000
H111        H  0.44916078  0.07787469  0.37479654     0.33500
C112        C  0.49619138  0.26694361  0.50296460    -0.20300
C113        C  0.48641256  0.26178643  0.47240806     0.36000
C114        C  0.48896266  0.28573058  0.45487561    -0.26200
C115        C  0.50017234  0.31448265  0.46721285     0.02400
C116        C  0.50877124  0.31958376  0.49784306     0.27200
C117        C  0.49564252  0.28833200  0.01604861    -0.25400
N118        N  0.02896183  0.26039750  0.46322702    -0.82700
H119        H  0.01999630  0.30084538  0.43432015     0.13000
C120        C  0.50109656  0.33838176  0.44777108     0.02400
N121        N  0.51901570  0.34874756  0.51099969    -0.81300
H122        H  0.48564765  0.28303223  0.03842570     0.17800
C123        C  0.47513771  0.34082440  0.44554163    -0.26200
C124        C  0.47355761  0.36066141  0.42475186     0.35900
C125        C  0.49836925  0.37810728  0.40528199    -0.20200
C126        C  0.01611538  0.37546094  0.41285469    -0.25400
C127        C  0.01895469  0.35668031  0.43410865     0.27200
H128        H  0.45581971  0.32676722  0.45979128     0.13000
N129        N  0.44691157  0.36324333  0.42356206    -0.82700
H130        H  0.03647430  0.39340278  0.40257419     0.17900
N131        N  0.04838617  0.36181277  0.44224603    -0.81300
H132        H  0.43054425  0.34840950  0.43882193     0.33500
H133        H  0.45324835  0.38497895  0.43090938     0.38000
H134        H  0.06528118  0.38025346  0.43046863     0.33400
H135        H  0.05167386  0.36747338  0.46518684     0.30100
H136        H  0.47221583  0.31915663  0.03290514     0.33500
H137        H  0.53929583  0.36405487  0.50039678     0.30100
H138        H  0.04752351  0.26712365  0.47754855     0.38000
H139        H  0.03777683  0.26860634  0.44172507     0.33500
C140        C  0.48657006  0.05422975  0.25741115    -0.20300
C141        C  0.47612921  0.07414142  0.26531357     0.36000
C142        C  0.47928904  0.09632450  0.24492602    -0.26200
C143        C  0.49312473  0.09963256  0.21674103     0.02400
C144        C  0.50355343  0.07987064  0.20862547     0.27200
C145        C  0.49985239  0.05707415  0.22882849    -0.25400
N146        N  0.46181144  0.07168266  0.29389759    -0.82700
H147        H  0.47109216  0.11134904  0.25132066     0.13000
C148        C  0.49767253  0.12508160  0.19724923     0.02400
N149        N  0.51896315  0.08365504  0.18049175    -0.81300
H150        H  0.50841945  0.04233207  0.22258499     0.17800
C151        C  0.99105232  0.12400344  0.17288001    -0.26200
C152        C  0.99059449  0.14622144  0.15458853     0.35900
C153        C  0.50153424  0.17426662  0.16474441    -0.20200
C154        C  0.48672570  0.14512353  0.15225039    -0.25400
C155        C  0.48435413  0.12048082  0.16844130     0.27200
H156        H  0.00244179  0.11233114  0.16487225     0.13000
N157        N  0.00493877  0.15288935  0.12539372    -0.82700
H158        H  0.47589202  0.14121506  0.13035841     0.17900
N159        N  0.46730067  0.09071619  0.15616003    -0.81300
H160        H  0.01608133  0.14075094  0.12195131     0.33500
H161        H  0.98780567  0.14501308  0.10914886     0.38000
H162        H  0.44524541  0.08618069  0.15219965     0.33400
H163        H  0.47688888  0.09046346  0.13533756     0.30100
H164        H  0.95104321  0.03274075  0.17879431     0.33500
H165        H  0.50729804  0.06349547  0.16837794     0.30100
H166        H  0.44005608  0.06797860  0.28987268     0.38000
H167        H  0.47410027  0.09227564  0.30517139     0.33500
C168        C  0.49884152  0.26849467  0.16661310    -0.20300
C169        C  0.96015584  0.25232914  0.19405929     0.36000
C170        C  0.96082680  0.27600752  0.21047442    -0.26200
C171        C  0.49984751  0.31453845  0.20261495     0.02400
C172        C  0.51613077  0.32192703  0.17516408     0.27200
C173        C  0.51538644  0.29876601  0.15731190    -0.25400
N174        N  0.94237953  0.22208973  0.20502043    -0.82700
H175        H  0.94836565  0.27112115  0.23155187     0.13000
C176        C  0.50009044  0.33786637  0.22263204     0.02400
N177        N  0.53332441  0.35283569  0.16564148    -0.81300
H178        H  0.52827805  0.30441378  0.13647494     0.17800
C179        C  0.00835098  0.34941699  0.23438334    -0.26200
C180        C  0.01081378  0.37000844  0.25662093     0.35900
C181        C  0.49975216  0.37779825  0.26669860    -0.20200
C182        C  0.47323555  0.35774551  0.25100755    -0.25400
C183        C  0.47308034  0.33774836  0.22924053     0.27200
H184        H  0.02800525  0.34754571  0.22885480     0.13000
N185        N  0.03939617  0.38834533  0.27111180    -0.82700
H186        H  0.45239201  0.35747156  0.25581427     0.17900
N187        N  0.44549382  0.31698717  0.21403459    -0.81300
H188        H  0.04601834  0.37412648  0.28108830     0.33500
H189        H  0.05528009  0.40097749  0.25443662     0.38000
H190        H  0.42754170  0.31957166  0.22160434     0.33400
H191        H  0.44838804  0.32256507  0.19107094     0.30100
H192        H  0.54403532  0.35448886  0.14498570     0.33500
H193        H  0.51808145  0.36041527  0.16185788     0.30100
H194        H  0.95014320  0.22112986  0.22660806     0.38000
H195        H  0.91994437  0.21710270  0.20699435     0.33500
C196        C  0.37736778  0.46826941  0.40403534    -0.20300
C197        C  0.38088046  0.49398031  0.41952670     0.36000
C198        C  0.35978750  0.49084769  0.44168232    -0.26200
C199        C  0.33536696  0.46246902  0.44926178     0.02400
C200        C  0.33301009  0.43652751  0.43562531     0.27200
C201        C  0.35387945  0.43967639  0.41314414    -0.25400
N202        N  0.39251404  0.02919058  0.39937186    -0.82700
H203        H  0.35023022  0.01562438  0.44113758     0.13000
C204        C  0.31084525  0.46046556  0.46902272     0.02400
N205        N  0.30907663  0.40710203  0.44433911    -0.81300
H206        H  0.35128041  0.41958870  0.40229348     0.17800
C207        C  0.28138909  0.44679693  0.45741200    -0.26200
C208        C  0.25747308  0.44550582  0.47422493     0.35900
C209        C  0.26319252  0.45889203  0.50325527    -0.20200
C210        C  0.28479052  0.46334646  0.01705770    -0.25400
C211        C  0.31655441  0.47303473  0.49832225     0.27200
H212        H  0.27556777  0.93132997  0.44074693     0.13000
N213        N  0.22542450  0.91885891  0.47037234    -0.82700
H214        H  0.28880596  0.47513985  0.03839590     0.17900
N215        N  0.33986395  0.48410734  0.01174031    -0.81300
H216        H  0.22365136  0.89771112  0.46883170     0.33500
H217        H  0.22175134  0.92478247  0.44884811     0.38000
H218        H  0.33972173  0.49341969  0.03273476     0.33400
H219        H  0.35214769  0.46987170  0.51306394     0.30100
H220        H  0.31037306  0.39035847  0.43208915     0.33500
H221        H  0.31243806  0.40393213  0.46703507     0.30100
H222        H  0.40454902  0.04516832  0.41613032     0.38000
H223        H  0.37770935  0.03496046  0.38914397     0.33500
C224        C  0.06113440  0.47506345  0.41247786    -0.20300
C225        C  0.09195594  0.48729570  0.40488686     0.36000
C226        C  0.11127227  0.48363100  0.42447798    -0.26200
C227        C  0.10047887  0.46693369  0.45124163     0.02400
C228        C  0.06969114  0.45480706  0.45920199     0.27200
C229        C  0.05041359  0.45939866  0.43991123    -0.25400
N230        N  0.10097378  0.98858240  0.37152655    -0.82700
H231        H  0.13128969  0.97884023  0.41377673     0.13000
C232        C  0.12206832  0.46259570  0.47020324     0.02400
N233        N  0.05798396  0.43733863  0.48636285    -0.81300
H234        H  0.02669646  0.44963433  0.44567431     0.17800
C235        C  0.12766492  0.97175374  0.49873615    -0.26200
C236        C  0.14462246  0.96634084  0.02127342     0.35900
C237        C  0.16073717  0.45036231  0.00644661    -0.20200
C238        C  0.16306667  0.45173527  0.47467597    -0.25400
C239        C  0.14038792  0.45216433  0.45726269     0.27200
H240        H  0.11734195  0.98466533  0.50604426     0.13000
N241        N  0.14791542  0.97559229  0.05226194    -0.82700
H242        H  0.17710402  0.44395014  0.46430088     0.17900
N243        N  0.13607136  0.44229059  0.42629551    -0.81300
H244        H  0.12723488  0.96213012  0.06320732     0.33500
H245        H  0.15261566  0.99789261  0.05293972     0.38000
H246        H  0.15149226  0.43549850  0.42013691     0.33400
H247        H  0.11452456  0.42328192  0.42455985     0.30100
H248        H  0.03495779  0.42998876  0.48885056     0.33500
H249        H  0.05579877  0.41884777  0.98673684     0.30100
H250        H  0.12094848  0.00937427  0.37349941     0.38000
H251        H  0.10615303  0.97357314  0.36079588     0.33500
C252        C  0.37680733  0.46706550  0.26299829    -0.20300
C253        C  0.38243230  0.49256167  0.24563250     0.36000
C254        C  0.36061657  0.49038330  0.22491792    -0.26200
C255        C  0.33367048  0.46313324  0.22026281     0.02400
C256        C  0.32900485  0.43704810  0.23553490     0.27200
C257        C  0.35057013  0.43926428  0.25674311    -0.25400
N258        N  0.41039748  0.52052013  0.24871653    -0.82700
H259        H  0.36447594  0.51017224  0.21245648     0.13000
C260        C  0.30975649  0.46290567  0.20099702     0.02400
N261        N  0.30199316  0.40862824  0.23011109    -0.81300
H262        H  0.34625051  0.41933013  0.26918716     0.17800
C263        C  0.30059389  0.44588761  0.17427141    -0.26200
C264        C  0.27744022  0.44482497  0.15622556     0.35900
C265        C  0.26290256  0.46084799  0.16513023    -0.20200
C266        C  0.27256466  0.47826691  0.19165359    -0.25400
C267        C  0.29580939  0.47951029  0.20959672     0.27200
H268        H  0.31703594  0.94737237  0.17420585     0.13000
N269        N  0.27744827  0.94298489  0.13192404    -0.82700
H270        H  0.26182748  0.49091298  0.19855171     0.17900
N271        N  0.30507937  0.49727997  0.23678998    -0.81300
H272        H  0.29173907  0.93410999  0.12899929     0.33500
H273        H  0.25539015  0.92459105  0.13274030     0.38000
H274        H  0.29281043  0.50835307  0.23979322     0.33400
H275        H  0.29967795  0.48250949  0.25503995     0.30100
H276        H  0.30212437  0.39157113  0.24287206     0.33500
H277        H  0.28358808  0.41043498  0.23768606     0.30100
H278        H  0.42740652  0.51674437  0.24060852     0.38000
H279        H  0.41068116  0.53714483  0.23486458     0.33500
C280        C  0.06072806  0.47503418  0.25827001    -0.20300
C281        C  0.05902286  0.47795915  0.22669563     0.36000
C282        C  0.07929863  0.47494524  0.20745639    -0.26200
C283        C  0.10123553  0.46899073  0.21920656     0.02400
C284        C  0.10255131  0.46537491  0.25061866     0.27200
C285        C  0.08254944  0.46867335  0.26975999    -0.25400
N286        N  0.03733797  0.48469435  0.21408181    -0.82700
H287        H  0.07830372  0.47785017  0.18330637     0.13000
C288        C  0.12371214  0.46776298  0.19889238     0.02400
N289        N  0.12412220  0.45811118  0.26291331    -0.81300
H290        H  0.08387620  0.46587939  0.29387775     0.17800
C291        C  0.15450441  0.48846230  0.20349222    -0.26200
C292        C  0.17694283  0.48682612  0.18670494     0.35900
C293        C  0.16839260  0.46409344  0.16465216    -0.20200
C294        C  0.13751472  0.44410008  0.15913028    -0.25400
C295        C  0.11502170  0.44544460  0.17637633     0.27200
H296        H  0.15942523  0.00552414  0.22689791     0.13000
N297        N  0.20972740  0.01362969  0.19953558    -0.82700
H298        H  0.13099211  0.42668160  0.14215409     0.17900
N299        N  0.08354564  0.42380877  0.17174612    -0.81300
H300        H  0.21021165  0.02510896  0.21925920     0.33500
H301        H  0.22040759  0.02996312  0.18272694     0.38000
H302        H  0.08098723  0.40885664  0.15439802     0.33400
H303        H  0.07537290  0.41095116  0.19146817     0.30100
H304        H  0.12226709  0.45631395  0.28646054     0.33500
H305        H  0.11860108  0.43682580  0.25476509     0.30100
H306        H  0.02390376  0.46757634  0.19881718     0.38000
H307        H  0.04908238  0.50487821  0.20201917     0.33500
C308        C  0.41230166  0.40203525  0.41203093    -0.20300
C309        C  0.40951212  0.41107456  0.44155380     0.36000
C310        C  0.38695412  0.39004870  0.46103460    -0.26200
C311        C  0.36710906  0.36043771  0.45151609     0.02400
C312        C  0.37000823  0.35138370  0.42223144     0.27200
C313        C  0.39228066  0.37229824  0.40274138    -0.25400
N314        N  0.42906276  0.44154231  0.45150083    -0.82700
H315        H  0.38443449  0.39686498  0.48354155     0.13000
C316        C  0.34294175  0.33888432  0.47201126     0.02400
N317        N  0.35042650  0.32081660  0.41253562    -0.81300
H318        H  0.39433360  0.36510995  0.38025345     0.17800
C319        C  0.31269844  0.32646300  0.46307086    -0.26200
C320        C  0.28915011  0.30334352  0.47982793     0.35900
C321        C  0.29331098  0.29357055  0.00964239    -0.20200
C322        C  0.32331013  0.30690222  0.01987173    -0.25400
C323        C  0.34981409  0.32911305  0.49905118     0.27200
H324        H  0.30756829  0.33444600  0.44250157     0.13000
N325        N  0.25830306  0.29080870  0.47009334    -0.82700
H326        H  0.32818039  0.29916192  0.04074613     0.17900
N327        N  0.38076003  0.34173045  0.50845587    -0.81300
H328        H  0.25719724  0.30116318  0.45018333     0.33500
H329        H  0.24688155  0.29579283  0.48668414     0.38000
H330        H  0.37888669  0.33223253  0.03316662     0.33400
H331        H  0.39183960  0.33589787  0.49224142     0.30100
H332        H  0.35538687  0.31782093  0.39029673     0.33500
H333        H  0.35499932  0.30691639  0.42608413     0.30100
H334        H  0.42405397  0.45548458  0.43853740     0.38000
H335        H  0.42437344  0.44418155  0.47395142     0.33500
C336        C  0.20391422  0.19283714  0.50282887    -0.20300
C337        C  0.18584256  0.16307555  0.51402110     0.36000
C338        C  0.16401618  0.14063216  0.49505861    -0.26200
C339        C  0.16001825  0.14720725  0.46528876     0.02400
C340        C  0.17785140  0.17668422  0.45409525     0.27200
C341        C  0.19943700  0.19913514  0.47293666    -0.25400
N342        N  0.19348952  0.15656239  0.04370497    -0.82700
H343        H  0.15006646  0.11786410  0.50345172     0.13000
C344        C  0.13671108  0.12334376  0.44590417     0.02400
N345        N  0.17398213  0.18363364  0.42351830    -0.81300
H346        H  0.21287113  0.22175186  0.46403556     0.17800
C347        C  0.11192623  0.12591837  0.43693764    -0.26200
C348        C  0.09079961  0.10572484  0.41620463     0.35900
C349        C  0.09436736  0.08215666  0.40390906    -0.20200
C350        C  0.11868777  0.07892907  0.41407445    -0.25400
C351        C  0.13998576  0.09941121  0.43482360     0.27200
H352        H  0.10930278  0.14422070  0.44565444     0.13000
N353        N  0.06608141  0.10973695  0.40752437    -0.82700
H354        H  0.12168013  0.06093000  0.40518978     0.17900
N355        N  0.16531356  0.09648715  0.44409707    -0.81300
H356        H  0.07494220  0.13128593  0.39826931     0.33500
H357        H  0.05404482  0.10867937  0.42703759     0.38000
H358        H  0.16437682  0.07761688  0.43400048     0.33400
H359        H  0.18561009  0.12377958  0.93596786     0.30100
H360        H  0.18867339  0.20643566  0.41881917     0.33500
H361        H  0.18016615  0.17146489  0.40911799     0.30100
H362        H  0.21605076  0.16186991  0.04213705     0.38000
H363        H  0.17399572  0.13302437  0.54915544     0.33500
C364        C  0.41347495  0.40065692  0.25768895    -0.20300
C365        C  0.39712028  0.36937111  0.26340530     0.36000
C366        C  0.37399455  0.35023122  0.24374043    -0.26200
C367        C  0.36596824  0.36181850  0.21915738     0.02400
C368        C  0.38108584  0.39314163  0.21408861     0.27200
C369        C  0.40528487  0.41229380  0.23306043    -0.25400
N370        N  0.40350583  0.35696353  0.28946215    -0.82700
H371        H  0.36186047  0.32616458  0.24795248     0.13000
C372        C  0.34125303  0.34043777  0.19943921     0.02400
N373        N  0.37094956  0.40536276  0.19067630    -0.81300
H374        H  0.41683407  0.43644370  0.22949707     0.17800
C375        C  0.31126946  0.32979192  0.20838571    -0.26200
C376        C  0.28711807  0.30650806  0.19235606     0.35900
C377        C  0.29329316  0.29379603  0.16692210    -0.20200
C378        C  0.32334798  0.30521944  0.15748426    -0.25400
C379        C  0.34747754  0.32822108  0.17377241     0.27200
H380        H  0.30681305  0.33923331  0.22833667     0.13000
N381        N  0.25642482  0.29569397  0.20181215    -0.82700
H382        H  0.32805412  0.29533278  0.13806477     0.17900
N383        N  0.37827328  0.33820162  0.16531030    -0.81300
H384        H  0.25586490  0.30732696  0.22099378     0.33500
H385        H  0.24562964  0.30060102  0.18455496     0.38000
H386        H  0.37895926  0.32630025  0.14641774     0.33400
H387        H  0.38833924  0.36076011  0.15875862     0.30100
H388        H  0.38374525  0.42890347  0.19072285     0.33500
H389        H  0.37480973  0.39824776  0.16986509     0.30100
H390        H  0.40787927  0.34013211  0.28228907     0.38000
H391        H  0.38400816  0.34665996  0.30287413     0.33500
C392        C  0.19943102  0.19543499  0.16911279    -0.20300
C393        C  0.17196803  0.17319810  0.15588594     0.36000
C394        C  0.14971468  0.15027727  0.17397302    -0.26200
C395        C  0.15439685  0.14907471  0.20495512     0.02400
C396        C  0.18161677  0.17092520  0.21832458     0.27200
C397        C  0.20384507  0.19383878  0.20031626    -0.25400
N398        N  0.16626088  0.17389619  0.12429611    -0.82700
H399        H  0.12865651  0.13338319  0.16381413     0.13000
C400        C  0.13073287  0.12497275  0.22359627     0.02400
N401        N  0.18660084  0.16955183  0.25013531    -0.81300
H402        H  0.22478107  0.21046347  0.21084295     0.17800
C403        C  0.13275373  0.09937479  0.22993536    -0.26200
C404        C  0.11311806  0.07782615  0.25079722     0.35900
C405        C  0.09121469  0.08216458  0.26598264    -0.20200
C406        C  0.08828038  0.10716526  0.25805994    -0.25400
C407        C  0.10792359  0.12867014  0.23713813     0.27200
H408        H  0.15021146  0.09650596  0.21918563     0.13000
N409        N  0.11589711  0.05189964  0.25661197    -0.82700
H410        H  0.07130217  0.11064560  0.26893872     0.17900
N411        N  0.10521915  0.15453322  0.23001261    -0.81300
H412        H  0.11330664  0.04072586  0.23610969     0.33500
H413        H  0.13781309  0.05930046  0.26444670     0.38000
H414        H  0.08695294  0.15366255  0.24161314     0.33400
H415        H  0.12467827  0.17366831  0.23786248     0.30100
H416        H  0.20802946  0.18702777  0.25637995     0.33500
H417        H  0.17090153  0.17310574  0.26187385     0.30100
H418        H  0.16220108  0.15358714  0.11467329     0.38000
H419        H  0.14661918  0.17522595  0.12200852     0.33500
C420        C  0.23048680  0.21358722  0.64704752     0.79800
N421        N  0.22928023  0.21486284  0.61638504    -0.78500
C422        C  0.25289133  0.23698984  0.60065889     0.82300
N423        N  0.27769518  0.25803897  0.61566181    -0.78400
C424        C  0.27930032  0.25711209  0.64616657     0.82400
N425        N  0.25567059  0.23481326  0.66161352    -0.80100
C426        C  0.22805283  0.21773078  0.52105585     0.79800
N427        N  0.24977896  0.24274379  0.50678422    -0.78500
C428        C  0.27234574  0.26575784  0.52246887     0.82300
N429        N  0.27343018  0.26351084  0.55293962    -0.78400
C430        C  0.25166789  0.23881598  0.56764601     0.82400
N431        N  0.22898705  0.21604547  0.55167372    -0.80100
C432        C  0.24020569  0.46332092  0.64733451     0.79800
N433        N  0.23979185  0.46163765  0.61659883    -0.78500
C434        C  0.21767886  0.46277797  0.60059191     0.82300
N435        N  0.19608855  0.46589587  0.61534914    -0.78400
C436        C  0.19656458  0.46816103  0.64587536     0.82400
N437        N  0.21852273  0.46670179  0.66162129    -0.80100
C438        C  0.23888564  0.45987711  0.52089390     0.79800
N439        N  0.23962880  0.46072194  0.55164868    -0.78500
C440        C  0.21715884  0.46148024  0.56742950     0.82300
N441        N  0.19406421  0.46155049  0.55238700    -0.78400
C442        C  0.19315807  0.46105182  0.52175501     0.82400
N443        N  0.21572479  0.46026589  0.50627475    -0.80100
C444        C  0.48404679  0.23649893  0.64838749     0.79800
N445        N  0.48156037  0.21180337  0.66242060    -0.78500
C446        C  0.48333169  0.19013967  0.64650480     0.82300
N447        N  0.48734810  0.19322798  0.61614650    -0.78400
C448        C  0.48969333  0.21768948  0.60170410     0.82400
N449        N  0.48825291  0.23945065  0.61789502    -0.80100
C450        C  0.49607910  0.24269538  0.52158807     0.79800
N451        N  0.49380100  0.24247998  0.55237738    -0.78500
C452        C  0.49316345  0.21961280  0.56865450     0.82300
N453        N  0.49471231  0.19718806  0.55413655    -0.78400
C454        C  0.49713461  0.19726745  0.52373214     0.82400
N455        N  0.49808296  0.22016620  0.50765928    -0.80100
O456        O  0.01310804  0.41105009  0.86706519    -0.88600
C457        C  0.07415057  0.06476866  0.79117864     1.11500
O458        O  0.48718771  0.44595841  0.83657589    -1.36400
O459        O  0.07888020  0.04497217  0.87060071    -0.90000
O460        O  0.46606552  0.38680380  0.87231095    -0.90700
O461        O  0.45568516  0.44523010  0.90049419    -0.79500
O462        O  0.04697011  0.47770383  0.86211796    -1.01600
C463        C  0.48676448  0.03236541  0.89032032     1.21500
O464        O  0.45242705  0.47385012  0.83711772    -1.36500
Mn465      Mn  0.48429534  0.47579343  0.80383793     1.82100
O466        O  0.48646758  0.00884570  0.89851236    -0.78600
O467        O  0.05454668  0.07078186  0.86881227    -0.88000
C468        C  0.48262022  0.03018010  0.77940478     1.12600
C469        C  0.07455370  0.06596845  0.88003437     1.07300
O470        O  0.45418643  0.44291290  0.77346479    -0.79500
O471        O  0.01837213  0.00997240  0.83606312    -1.33200
O472        O  0.42799385  0.41439175  0.80918659    -0.98800
C473        C  0.39486594  0.46896421  0.88238236     1.06000
Mn474      Mn  0.02118132  0.05262400  0.83565967     1.48600
O475        O  0.39123208  0.44493831  0.87023155    -0.88000
Mn476      Mn  0.44867048  0.40201147  0.83797672     1.49600
O477        O  0.01206693  0.41168960  0.79888962    -0.91800
C478        C  0.04214000  0.47725489  0.88917100     1.21400
C479        C  0.49015225  0.39125011  0.79276890     1.11300
Mn480      Mn  0.48559911  0.47669145  0.86926098     1.81000
O481        O  0.48298954  0.03448807  0.80650886    -0.97000
Mn482      Mn  0.02773097  0.44421179  0.83331981     1.49300
C483        C  0.49222197  0.39308196  0.88135007     1.07800
Mn484      Mn  0.45016847  0.01557027  0.83618525     1.49900
C485        C  0.39485916  0.46959418  0.79286108     1.10700
O486        O  0.42813175  0.41569364  0.86585648    -1.02800
O487        O  0.05362547  0.06963959  0.80111374    -0.92400
C488        C  0.43250758  0.42131080  0.89276849     1.22000
O489        O  0.48523352  0.03598502  0.86328554    -1.03200
O490        O  0.07903573  0.04487446  0.80254137    -0.90600
O491        O  0.41647663  0.99974957  0.80337386    -0.90200
O492        O  0.46485649  0.38490113  0.80442523    -0.90200
Mn493      Mn  0.06084455  0.01197099  0.83643389     1.47900
O494        O  0.48322362  0.00714357  0.77102360    -0.78700
C495        C  0.43217639  0.41846672  0.78209417     1.15100
O496        O  0.01911046  0.47802938  0.89739823    -0.77400
O497        O  0.01784833  0.47789823  0.77041967    -0.77000
Mn498      Mn  0.41118234  0.43196195  0.83683660     1.51100
O499        O  0.41797173  0.99976281  0.87119014    -0.89400
O500        O  0.04653695  0.47826636  0.80510514    -0.96900
O501        O  0.39209933  0.44486947  0.80212870    -0.91900
C502        C  0.04151375  0.47815441  0.77809485     1.12800
C503        C  0.49021009  0.05597698  0.91219885    -0.20300
C504        C  0.48373657  0.07866533  0.90365285     0.36000
C505        C  0.48876313  0.10160954  0.92398825    -0.26200
C506        C  0.50079219  0.10311981  0.95277554     0.02400
C507        C  0.99550757  0.07658457  0.96476179     0.27200
C508        C  0.99408242  0.05493407  0.94411255    -0.25400
N509        N  0.47205021  0.07867525  0.87425377    -0.82700
H510        H  0.48327736  0.11855344  0.91711809     0.13000
C511        C  0.50581133  0.12841043  0.97301557     0.02400
N512        N  0.00453050  0.07682500  0.99555175    -0.81300
H513        H  0.99972264  0.03830574  0.95167051     0.17800
C514        C  0.49066589  0.12232856  0.00088029    -0.26200
C515        C  0.47986346  0.14204569  0.51687243     0.35900
C516        C  0.49826674  0.17249913  0.50801109    -0.20200
C517        C  0.52371390  0.18178098  0.98044313    -0.25400
C518        C  0.52315464  0.15854477  0.96323766     0.27200
H519        H  0.46480855  0.09581726  0.50504428     0.13000
N520        N  0.45999698  0.13419211  0.54254861    -0.82700
H521        H  0.53674080  0.20473366  0.97224260     0.17900
N522        N  0.54014424  0.16559177  0.93567299    -0.81300
H523        H  0.44602156  0.11081131  0.54408834     0.33500
H524        H  0.47345794  0.14069992  0.56195239     0.38000
H525        H  0.53276440  0.17681543  0.92141972     0.33400
H526        H  0.56290984  0.18037338  0.94076083     0.30100
H527        H  0.00880667  0.05921268  0.99927643     0.33500
H528        H  0.02503885  0.09685228  0.99888088     0.30100
H529        H  0.48708970  0.09904959  0.86372352     0.38000
H530        H  0.45133426  0.07786602  0.87692379     0.33500
C531        C  0.50922012  0.27242432  0.00446213    -0.20300
C532        C  0.52242564  0.27984964  0.97536245     0.36000
C533        C  0.52045415  0.30158278  0.95798884    -0.26200
C534        C  0.50610764  0.31678925  0.96916543     0.02400
C535        C  0.49404189  0.31049986  0.99873721     0.27200
C536        C  0.50680694  0.29577398  0.51543633    -0.25400
N537        N  0.02704632  0.26149329  0.96900220    -0.82700
H538        H  0.02047107  0.30262047  0.93866786     0.13000
C539        C  0.50296855  0.33825634  0.94902190     0.02400
N540        N  0.48008635  0.32651938  0.01096072    -0.81300
H541        H  0.51400440  0.29988257  0.53882754     0.17800
C542        C  0.47406026  0.33353309  0.94259946    -0.26200
C543        C  0.46982975  0.35165519  0.92160345     0.35900
C544        C  0.49517359  0.37487580  0.90611111    -0.20200
C545        C  0.01692027  0.37617215  0.91347080    -0.25400
C546        C  0.01865938  0.35740520  0.93549034     0.27200
H547        H  0.45456570  0.31514131  0.95360214     0.13000
N548        N  0.43986123  0.34630317  0.91600328    -0.82700
H549        H  0.03781730  0.39397176  0.90385461     0.17900
N550        N  0.04763063  0.36252397  0.94495628    -0.81300
H551        H  0.42376556  0.32765081  0.92822993     0.33500
H552        H  0.43913857  0.36491011  0.92452612     0.38000
H553        H  0.05911460  0.36132285  0.92590804     0.33400
H554        H  0.05979894  0.38431492  0.95376452     0.30100
H555        H  0.52400995  0.34867089  0.53389727     0.33500
H556        H  0.49681581  0.34922754  0.01264605     0.30100
H557        H  0.04426963  0.26755731  0.98490388     0.38000
H558        H  0.03770838  0.27036921  0.94828713     0.33500
C559        C  0.48236745  0.05225154  0.75769885    -0.20300
C560        C  0.48912292  0.08127794  0.76738517     0.36000
C561        C  0.48756230  0.10122219  0.74695326    -0.26200
C562        C  0.47933852  0.09313892  0.71675683     0.02400
C563        C  0.47323067  0.06454251  0.70658512     0.27200
C564        C  0.47493808  0.04440927  0.72713688    -0.25400
N565        N  0.49789904  0.09091260  0.79796047    -0.82700
H566        H  0.49289274  0.12336695  0.75479916     0.13000
C567        C  0.47760530  0.11534721  0.69648607     0.02400
N568        N  0.46485533  0.05591363  0.67563161    -0.81300
H569        H  0.46982081  0.02231817  0.71939973     0.17800
C570        C  0.99528216  0.12620235  0.67104125    -0.26200
C571        C  0.99543757  0.14905723  0.65351437     0.35900
C572        C  0.48084514  0.16350191  0.66236841    -0.20200
C573        C  0.46098989  0.15147112  0.68706001    -0.25400
C574        C  0.45889585  0.12732280  0.70392477     0.27200
H575        H  0.00915341  0.11680553  0.66407236     0.13000
N576        N  0.01328307  0.15880961  0.62646680    -0.82700
H577        H  0.44699821  0.16097030  0.69322733     0.17900
N578        N  0.43802669  0.11501681  0.72880979    -0.81300
H579        H  0.03574278  0.16602031  0.63219266     0.33500
H580        H  0.00569305  0.14023310  0.61206582     0.38000
H581        H  0.42601967  0.12640219  0.73144155     0.33400
H582        H  0.42212294  0.09272620  0.72335097     0.30100
H583        H  0.96581363  0.03645532  0.67315386     0.33500
H584        H  0.44418463  0.05493163  0.67196547     0.30100
H585        H  0.48261750  0.09671608  0.80702888     0.38000
H586        H  0.51935173  0.11025401  0.79766022     0.33500
C587        C  0.48318501  0.26034908  0.66652592    -0.20300
C588        C  0.96037865  0.25211986  0.69082400     0.36000
C589        C  0.96102054  0.27567346  0.70752163    -0.26200
C590        C  0.48558417  0.30672361  0.70300494     0.02400
C591        C  0.50274039  0.31402412  0.67612075     0.27200
C592        C  0.50128603  0.29072369  0.65805183    -0.25400
N593        N  0.94160154  0.22166867  0.70083253    -0.82700
H594        H  0.94792711  0.27044855  0.72821114     0.13000
C595        C  0.48725642  0.33035098  0.72360017     0.02400
N596        N  0.52163427  0.34501403  0.66743511    -0.81300
H597        H  0.51490582  0.29633943  0.63770585     0.17800
C598        C  0.00931031  0.35070286  0.73099420    -0.26200
C599        C  0.01186001  0.37147586  0.75311954     0.35900
C600        C  0.49018934  0.37165338  0.76786982    -0.20200
C601        C  0.46277137  0.35202677  0.75318610    -0.25400
C602        C  0.46110162  0.33153452  0.73111097     0.27200
H603        H  0.02935855  0.35001757  0.72429784     0.13000
N604        N  0.04105916  0.39170497  0.76552399    -0.82700
H605        H  0.44238226  0.35234603  0.75917009     0.17900
N606        N  0.43286903  0.31160913  0.71649545    -0.81300
H607        H  0.04965668  0.37890890  0.77499318     0.33500
H608        H  0.05532215  0.40429355  0.74773944     0.38000
H609        H  0.41608294  0.31599339  0.72395699     0.33400
H610        H  0.43568144  0.31648783  0.69338000     0.30100
H611        H  0.53290324  0.34657522  0.64717009     0.33500
H612        H  0.50750882  0.35384875  0.66322336     0.30100
H613        H  0.94832013  0.21989303  0.72267734     0.38000
H614        H  0.91928145  0.21718492  0.70193814     0.33500
C615        C  0.37432933  0.46570757  0.90805089    -0.20300
C616        C  0.37339031  0.49049503  0.92080885     0.36000
C617        C  0.35120595  0.48556353  0.94247706    -0.26200
C618        C  0.33009698  0.45636713  0.95223268     0.02400
C619        C  0.33233775  0.43176608  0.94136527     0.27200
C620        C  0.35421814  0.43662600  0.91935506    -0.25400
N621        N  0.39656509  0.02708420  0.90551816    -0.82700
H622        H  0.35311288  0.01332256  0.94574507     0.13000
C623        C  0.30455300  0.45175647  0.97206118     0.02400
N624        N  0.31214116  0.40190146  0.95251026    -0.81300
H625        H  0.35517136  0.41737239  0.91071908     0.17800
C626        C  0.27475729  0.43374153  0.96165776    -0.26200
C627        C  0.25006769  0.43085650  0.97836997     0.35900
C628        C  0.25505473  0.44629814  0.00605388    -0.20200
C629        C  0.29266412  0.47212512  0.51515373    -0.25400
C630        C  0.30958749  0.46627412  0.00031939     0.27200
H631        H  0.27254374  0.93332659  0.93776871     0.13000
N632        N  0.22293844  0.92370645  0.96751303    -0.82700
H633        H  0.29721781  0.48229488  0.53741550     0.17900
N634        N  0.34654841  0.48674290  0.51075724    -0.81300
H635        H  0.21198801  0.90584292  0.98276665     0.33500
H636        H  0.22211335  0.91411902  0.94641397     0.38000
H637        H  0.34698865  0.49502180  0.53247211     0.33400
H638        H  0.34834222  0.46962279  0.01541536     0.30100
H639        H  0.31663572  0.38628512  0.94209185     0.33500
H640        H  0.31665228  0.40167990  0.97552381     0.30100
H641        H  0.40877670  0.04008510  0.92411625     0.38000
H642        H  0.38437032  0.03655393  0.89645097     0.33500
C643        C  0.06242762  0.47457778  0.91121445    -0.20300
C644        C  0.09285410  0.48435454  0.90387004     0.36000
C645        C  0.11076460  0.47908342  0.92396128    -0.26200
C646        C  0.09891009  0.46367064  0.95122975     0.02400
C647        C  0.06875836  0.45469012  0.95925061     0.27200
C648        C  0.05086994  0.46043295  0.93919585    -0.25400
N649        N  0.10470616  0.00231373  0.87899822    -0.82700
H650        H  0.13402874  0.99087593  0.92105565     0.13000
C651        C  0.11862722  0.45716014  0.97068659     0.02400
N652        N  0.05629650  0.43942749  0.98739888    -0.81300
H653        H  0.02750619  0.45284580  0.94494414     0.17800
C654        C  0.12277968  0.96789219  0.00333716    -0.26200
C655        C  0.14971951  0.97095565  0.51701302     0.35900
C656        C  0.16785229  0.46110386  0.50503949    -0.20200
C657        C  0.15373772  0.43865570  0.97695044    -0.25400
C658        C  0.13308171  0.44205216  0.95891887     0.27200
H659        H  0.10941966  0.97676762  0.01313752     0.13000
N660        N  0.15813983  0.98699548  0.54526502    -0.82700
H661        H  0.16482738  0.42716933  0.96765261     0.17900
N662        N  0.12736151  0.43093674  0.92836135    -0.81300
H663        H  0.14487147  0.99678959  0.54962968     0.33500
H664        H  0.18042920  0.00475318  0.54310153     0.38000
H665        H  0.13972696  0.42035532  0.92317553     0.33400
H666        H  0.10452777  0.41450897  0.92668991     0.30100
H667        H  0.03386902  0.43434834  0.98979656     0.33500
H668        H  0.05971562  0.41800821  0.48398759     0.30100
H669        H  0.12295981  0.02351009  0.88445945     0.38000
H670        H  0.11311709  0.99070596  0.86668278     0.33500
C671        C  0.37566401  0.46901925  0.76714537    -0.20300
C672        C  0.37609594  0.49541558  0.75702749     0.36000
C673        C  0.35589283  0.49340781  0.73457444    -0.26200
C674        C  0.33483509  0.46562607  0.72194663     0.02400
C675        C  0.33539967  0.43946483  0.73043117     0.27200
C676        C  0.35590024  0.44144238  0.75280753    -0.25400
N677        N  0.39635341  0.52432202  0.76990448    -0.82700
H678        H  0.35583327  0.51365032  0.72776307     0.13000
C679        C  0.31039876  0.46415362  0.70260827     0.02400
N680        N  0.31457039  0.41089710  0.71701077    -0.81300
H681        H  0.35572859  0.42111762  0.75965617     0.17800
C682        C  0.30710955  0.45435303  0.67250587    -0.26200
C683        C  0.28417722  0.45326601  0.65390119     0.35900
C684        C  0.26448329  0.46278808  0.66562365    -0.20200
C685        C  0.26789918  0.47225483  0.69596575    -0.25400
C686        C  0.29030400  0.47275462  0.71453211     0.27200
H687        H  0.32708243  0.95788950  0.66294964     0.13000
N688        N  0.28532163  0.95251889  0.62314868    -0.82700
H689        H  0.25305378  0.47947931  0.70546880     0.17900
N690        N  0.29270603  0.48189207  0.74564675    -0.81300
H691        H  0.30284884  0.94849800  0.61750854     0.33500
H692        H  0.26530348  0.93168844  0.62185516     0.38000
H693        H  0.27638053  0.48774451  0.75091864     0.33400
H694        H  0.28794390  0.46326190  0.75906268     0.30100
H695        H  0.31808513  0.39391692  0.72552470     0.33500
H696        H  0.29271639  0.40542876  0.72349988     0.30100
H697        H  0.40962662  0.53869871  0.75250509     0.38000
H698        H  0.38345970  0.53299310  0.77912680     0.33500
C699        C  0.06260677  0.47717413  0.75565854    -0.20300
C700        C  0.06238028  0.48379314  0.72462874     0.36000
C701        C  0.08357021  0.48280206  0.70491344    -0.26200
C702        C  0.10478654  0.47528089  0.71558508     0.02400
C703        C  0.10433449  0.46786323  0.74634603     0.27200
C704        C  0.08364162  0.46929650  0.76599553    -0.25400
N705        N  0.04135947  0.49226445  0.71336347    -0.82700
H706        H  0.08409591  0.48870536  0.68132806     0.13000
C707        C  0.12818605  0.47600796  0.69502151     0.02400
N708        N  0.12475699  0.45852720  0.75747384    -0.81300
H709        H  0.08370033  0.46370264  0.78959672     0.17800
C710        C  0.15865977  0.49298796  0.70367924    -0.26200
C711        C  0.18139476  0.49123577  0.68764660     0.35900
C712        C  0.17360555  0.47252220  0.66190858    -0.20200
C713        C  0.14344968  0.45732307  0.65182176    -0.25400
C714        C  0.12053087  0.45858907  0.66833874     0.27200
H715        H  0.16715921  0.01770984  0.72068602     0.13000
N716        N  0.21485653  0.02122513  0.69148068    -0.82700
H717        H  0.13754063  0.44333748  0.63177793     0.17900
N718        N  0.08952997  0.44156088  0.65866777    -0.81300
H719        H  0.21712505  0.03603007  0.70887285     0.33500
H720        H  0.22352084  0.03425711  0.67193252     0.38000
H721        H  0.08780434  0.43010653  0.63853690     0.33400
H722        H  0.07749678  0.42512573  0.67505360     0.30100
H723        H  0.12166440  0.45403910  0.78066022     0.33500
H724        H  0.11924146  0.43820752  0.74682885     0.30100
H725        H  0.04384348  0.49577225  0.69000354     0.38000
H726        H  0.04698696  0.51300944  0.72309860     0.33500
C727        C  0.41019167  0.40038712  0.91492893    -0.20300
C728        C  0.40770577  0.40945363  0.94448482     0.36000
C729        C  0.38522185  0.38850207  0.96395994    -0.26200
C730        C  0.36522920  0.35898204  0.95435622     0.02400
C731        C  0.36784692  0.34987153  0.92501644     0.27200
C732        C  0.39005630  0.37072527  0.90554048    -0.25400
N733        N  0.42731617  0.43993023  0.95437093    -0.82700
H734        H  0.38275191  0.39535610  0.98646720     0.13000
C735        C  0.34084276  0.33787411  0.97470545     0.02400
N736        N  0.34793752  0.31941081  0.91519373    -0.81300
H737        H  0.39189079  0.36359031  0.88295132     0.17800
C738        C  0.31078688  0.32574523  0.96532687    -0.26200
C739        C  0.28689318  0.30375446  0.98254460     0.35900
C740        C  0.29604695  0.29245681  0.50618205    -0.20200
C741        C  0.32620314  0.30619342  0.51610819    -0.25400
C742        C  0.34727130  0.32884870  0.00244833     0.27200
H743        H  0.30604119  0.33315514  0.94417122     0.13000
N744        N  0.25616900  0.29168037  0.97258222    -0.82700
H745        H  0.33152422  0.29802044  0.53641559     0.17900
N746        N  0.37807724  0.34124988  0.01224422    -0.81300
H747        H  0.25545188  0.30144491  0.95210287     0.33500
H748        H  0.24510893  0.29778201  0.98855630     0.38000
H749        H  0.38194717  0.33208907  0.52883666     0.33400
H750        H  0.38899917  0.33452391  0.99673819     0.30100
H751        H  0.35269168  0.31645046  0.89286354     0.33500
H752        H  0.35236276  0.30528290  0.92853854     0.30100
H753        H  0.42225847  0.45386768  0.94146140     0.38000
H754        H  0.42273626  0.44259758  0.97685216     0.33500
C755        C  0.20023316  0.19585308  0.00707582    -0.20300
C756        C  0.18579446  0.16521958  0.01570724     0.36000
C757        C  0.16429086  0.14312222  0.99621315    -0.26200
C758        C  0.15729555  0.15106589  0.96827489     0.02400
C759        C  0.17164911  0.18162640  0.95974776     0.27200
C760        C  0.19271879  0.20362518  0.97928794    -0.25400
N761        N  0.18978475  0.15551548  0.54429821    -0.82700
H762        H  0.15312905  0.11957952  0.00263809     0.13000
C763        C  0.13501854  0.12739767  0.94783938     0.02400
N764        N  0.16508917  0.19014701  0.93102141    -0.81300
H765        H  0.20360747  0.22707218  0.97255493     0.17800
C766        C  0.10918279  0.12841181  0.93942944    -0.26200
C767        C  0.08887708  0.10832988  0.91803203     0.35900
C768        C  0.09418690  0.08629016  0.90466839    -0.20200
C769        C  0.11961516  0.08465932  0.91412204    -0.25400
C770        C  0.14019584  0.10512655  0.93534389     0.27200
H771        H  0.10501557  0.14537310  0.94918157     0.13000
N772        N  0.06311222  0.11079961  0.90990409    -0.82700
H773        H  0.12409645  0.06801911  0.90423678     0.17900
N774        N  0.16674949  0.10393029  0.94360503    -0.81300
H775        H  0.07086124  0.13242449  0.90128634     0.33500
H776        H  0.05083580  0.10858535  0.92958667     0.38000
H777        H  0.16716635  0.08615478  0.93250149     0.33400
H778        H  0.18497572  0.11530807  0.43603337     0.30100
H779        H  0.17740250  0.21354212  0.92828265     0.33500
H780        H  0.17248908  0.18107339  0.91413736     0.30100
H781        H  0.21109917  0.15741181  0.54538229     0.38000
H782        H  0.18058282  0.13322811  0.04671796     0.33500
C783        C  0.41178309  0.39486084  0.76058664    -0.20300
C784        C  0.38202975  0.37306823  0.76909707     0.36000
C785        C  0.36359596  0.35024330  0.74888595    -0.26200
C786        C  0.37413298  0.34830226  0.72019476     0.02400
C787        C  0.40379197  0.37015298  0.71134568     0.27200
C788        C  0.42230345  0.39332278  0.73164261    -0.25400
N789        N  0.37009775  0.37430742  0.79806881    -0.82700
H790        H  0.34058894  0.33412585  0.75554729     0.13000
C791        C  0.35286720  0.32416020  0.69944981     0.02400
N792        N  0.41494381  0.36874357  0.68188703    -0.81300
H793        H  0.44518461  0.40987196  0.72506472     0.17800
C794        C  0.34614326  0.33215404  0.67145070    -0.26200
C795        C  0.32314029  0.31059061  0.65286453     0.35900
C796        C  0.30613543  0.28032137  0.66282940    -0.20200
C797        C  0.31361140  0.27224968  0.69043307    -0.25400
C798        C  0.33683168  0.29373578  0.70875757     0.27200
H799        H  0.35811780  0.35558949  0.66458759     0.13000
N800        N  0.31599327  0.31980484  0.62487625    -0.82700
H801        H  0.30095665  0.24904933  0.69799437     0.17900
N802        N  0.34360264  0.28491857  0.73719457    -0.81300
H803        H  0.32868527  0.34322362  0.62247126     0.33500
H804        H  0.32292734  0.31099506  0.60732269     0.38000
H805        H  0.32922763  0.26187673  0.74100925     0.33400
H806        H  0.36547683  0.28832907  0.73577141     0.30100
H807        H  0.43726895  0.38625174  0.67909676     0.33500
H808        H  0.41534289  0.34864761  0.68052499     0.30100
H809        H  0.36352268  0.35403367  0.80932610     0.38000
H810        H  0.35079976  0.37603182  0.79464140     0.33500
C811        C  0.20444114  0.19022822  0.66504221    -0.20300
C812        C  0.17983758  0.16420418  0.65186671     0.36000
C813        C  0.15600828  0.14335787  0.67042612    -0.26200
C814        C  0.15646045  0.14767750  0.70172887     0.02400
C815        C  0.18077774  0.17333901  0.71493259     0.27200
C816        C  0.20435176  0.19432287  0.69654522    -0.25400
N817        N  0.17927531  0.15855496  0.61996902    -0.82700
H818        H  0.13736514  0.12324278  0.66059700     0.13000
C819        C  0.13284103  0.12413265  0.72116339     0.02400
N820        N  0.18179307  0.17753337  0.74716344    -0.81300
H821        H  0.22282333  0.21401644  0.70711033     0.17800
C822        C  0.13792396  0.10183339  0.73300207    -0.26200
C823        C  0.11856267  0.08151533  0.75489496     0.35900
C824        C  0.09355777  0.08364028  0.76561050    -0.20200
C825        C  0.08763746  0.10508255  0.75225221    -0.25400
C826        C  0.10705890  0.12535757  0.73016584     0.27200
H827        H  0.15764763  0.10076198  0.72582748     0.13000
N828        N  0.12492676  0.05924966  0.76646850    -0.82700
H829        H  0.06819086  0.10658809  0.75950769     0.17900
N830        N  0.10084075  0.14726400  0.71701586    -0.81300
H831        H  0.12486195  0.04611250  0.74835060     0.33500
H832        H  0.14667117  0.07032688  0.77574964     0.38000
H833        H  0.08070047  0.14484140  0.72571293     0.33400
H834        H  0.11810519  0.16865056  0.72349409     0.30100
H835        H  0.20159625  0.19718776  0.75344804     0.33500
H836        H  0.16379594  0.18066570  0.75320353     0.30100
H837        H  0.19690291  0.15439328  0.61532759     0.38000
H838        H  0.15925825  0.13897979  0.61397002     0.33500
C839        C  0.22846516  0.71654851  0.15040817     0.79800
N840        N  0.22630538  0.71768490  0.11988628    -0.78500
C841        C  0.24910928  0.74029532  0.10382968     0.82300
N842        N  0.27405042  0.76186707  0.11846490    -0.78400
C843        C  0.27644665  0.76080144  0.14896658     0.82400
N844        N  0.25357787  0.73801485  0.16460704    -0.80100
C845        C  0.22236933  0.71933207  0.02480982     0.79800
N846        N  0.24393450  0.74393988  0.00989558    -0.78500
C847        C  0.26687857  0.76724877  0.02488195     0.82300
N848        N  0.26850621  0.76577074  0.05538896    -0.78400
C849        C  0.24696963  0.74151265  0.07079819     0.82400
N850        N  0.22390272  0.71833182  0.05546545    -0.80100
C851        C  0.24262851  0.97219110  0.14992981     0.79800
N852        N  0.24147177  0.96824979  0.11935490    -0.78500
C853        C  0.21816446  0.96693384  0.10318347     0.82300
N854        N  0.19613920  0.96953652  0.11765516    -0.78400
C855        C  0.19735564  0.97386581  0.14793596     0.82400
N856        N  0.22050239  0.97501259  0.16382422    -0.80100
C857        C  0.23601715  0.95814457  0.02361201     0.79800
N858        N  0.23834993  0.96162488  0.05421027    -0.78500
C859        C  0.21619621  0.96283354  0.07018228     0.82300
N860        N  0.19197088  0.96088523  0.05542839    -0.78400
C861        C  0.18949685  0.95767886  0.02496436     0.82400
N862        N  0.21170299  0.95642152  0.00935387    -0.80100
C863        C  0.48920666  0.74013655  0.15054098     0.79800
N864        N  0.49170528  0.71812823  0.16505883    -0.78500
C865        C  0.49401057  0.69667570  0.14922543     0.82300
N866        N  0.49361383  0.69721405  0.11860107    -0.78400
C867        C  0.49168431  0.71929280  0.10369610     0.82400
N868        N  0.48962229  0.74086484  0.11971836    -0.80100
C869        C  0.49558347  0.74321322  0.02360321     0.79800
N870        N  0.49389920  0.74296285  0.05438581    -0.78500
C871        C  0.49235543  0.71956657  0.07038525     0.82300
N872        N  0.49232102  0.69635214  0.05549550    -0.78400
C873        C  0.49363241  0.69612442  0.02487209     0.82400
N874        N  0.49527332  0.71962437  0.00923862    -0.80100
O875        O  0.00875148  0.90753673  0.36754577    -0.88600
C876        C  0.07192524  0.56501819  0.29208016     1.11500
O877        O  0.48846658  0.94856031  0.33719547    -1.36400
O878        O  0.07617810  0.54407203  0.37063200    -0.90000
O879        O  0.46583198  0.88952299  0.37408557    -0.90700
O880        O  0.45776799  0.95021091  0.40099985    -0.79500
O881        O  0.04417221  0.97431783  0.36251194    -1.01600
C882        C  0.48404733  0.53194658  0.38852362     1.21500
O883        O  0.45542449  0.97836737  0.33645937    -1.36500
Mn884      Mn  0.48694918  0.97858681  0.30359265     1.82100
O885        O  0.48560893  0.50953342  0.39712083    -0.78600
O886        O  0.05101544  0.56903363  0.36884080    -0.88000
C887        C  0.48439078  0.53057757  0.27782577     1.12600
C888        C  0.07114524  0.56453977  0.38018495     1.07300
O889        O  0.45586760  0.94575616  0.27393722    -0.79500
O890        O  0.01641022  0.50881080  0.33570396    -1.33200
O891        O  0.42902711  0.91837190  0.31018251    -0.98800
C892        C  0.39873564  0.97721851  0.38061402     1.06000
Mn893      Mn  0.01803505  0.55096713  0.33558196     1.48600
O894        O  0.39511677  0.95241691  0.37059831    -0.88000
Mn895      Mn  0.44911254  0.90528839  0.33921341     1.49600
O896        O  0.00770733  0.90798498  0.29967404    -0.91800
C897        C  0.04003817  0.97372849  0.38966713     1.21400
C898        C  0.48935593  0.89243973  0.29433462     1.11300
Mn899      Mn  0.48802846  0.98040653  0.36895694     1.81000
O900        O  0.48283007  0.53402607  0.30480013    -0.97000
Mn901      Mn  0.02406805  0.94075430  0.33394544     1.49300
C902        C  0.49171827  0.89522833  0.38360370     1.07800
Mn903      Mn  0.44890915  0.51326762  0.33316913     1.49900
C904        C  0.39744811  0.97485717  0.29281867     1.10700
O905        O  0.42975436  0.92046690  0.36683374    -1.02800
O906        O  0.05071303  0.56901465  0.30155569    -0.92400
C907        C  0.43441493  0.92632400  0.39367692     1.22000
O908        O  0.48276482  0.53535592  0.36140654    -1.03200
O909        O  0.07711581  0.54517919  0.30298946    -0.90600
O910        O  0.41582309  0.49504054  0.29908790    -0.90200
O911        O  0.46420088  0.88692174  0.30574682    -0.90200
Mn912      Mn  0.05922630  0.51170725  0.33607761     1.47900
O913        O  0.48657900  0.50833059  0.26980057    -0.78700
C914        C  0.43309927  0.92208879  0.28301882     1.15100
O915        O  0.01707563  0.97434682  0.39860786    -0.77400
O916        O  0.01531926  0.97634449  0.27159204    -0.77000
Mn917      Mn  0.41344159  0.93732169  0.33762833     1.51100
O918        O  0.41607822  0.49619162  0.36749566    -0.89400
O919        O  0.04318716  0.97478437  0.30594487    -0.96900
O920        O  0.39395146  0.95026799  0.30340804    -0.91900
C921        C  0.03807529  0.97482507  0.27906937     1.12800
C922        C  0.48606210  0.55506820  0.41009022    -0.20300
C923        C  0.47716246  0.57598626  0.40160043     0.36000
C924        C  0.48075906  0.59849773  0.42184817    -0.26200
C925        C  0.49412713  0.60153534  0.45023738     0.02400
C926        C  0.99807354  0.57622714  0.46415106     0.27200
C927        C  0.99540491  0.55408880  0.44346623    -0.25400
N928        N  0.46442745  0.57456221  0.37239245    -0.82700
H929        H  0.47315915  0.61391117  0.41520952     0.13000
C930        C  0.49769104  0.62628914  0.47045465     0.02400
N931        N  0.00927891  0.57740723  0.49418315    -0.81300
H932        H  0.00177586  0.53782370  0.45041742     0.17800
C933        C  0.48428466  0.61956910  0.49922172    -0.26200
C934        C  0.47868744  0.64096424  0.01914304     0.35900
C935        C  0.49403143  0.67100501  0.00835761    -0.20200
C936        C  0.51196214  0.67876118  0.47802318    -0.25400
C937        C  0.51227227  0.65632215  0.46019202     0.27200
H938        H  0.46596199  0.59482205  0.00934289     0.13000
N939        N  0.46227461  0.63365728  0.04721544    -0.82700
H940        H  0.52301216  0.70160740  0.46942324     0.17900
N941        N  0.52747512  0.66411861  0.43155953    -0.81300
H942        H  0.44431585  0.63769516  0.04448045     0.33500
H943        H  0.45263874  0.61070840  0.05205203     0.38000
H944        H  0.51781716  0.67388225  0.41825388     0.33400
H945        H  0.55015595  0.68031640  0.43525794     0.30100
H946        H  0.01405818  0.56006194  0.49737916     0.33500
H947        H  0.02984597  0.59764074  0.49618301     0.30100
H948        H  0.47825338  0.59500652  0.36135579     0.38000
H949        H  0.44313424  0.57238401  0.37534517     0.33500
C950        C  0.50244769  0.77068093  0.50709472    -0.20300
C951        C  0.51794633  0.77974966  0.47902752     0.36000
C952        C  0.51766369  0.80291781  0.46227133    -0.26200
C953        C  0.50275477  0.81776325  0.47295575     0.02400
C954        C  0.48879613  0.81000958  0.50167531     0.27200
C955        C  0.48722648  0.78725276  0.01812437    -0.25400
N956        N  0.01770603  0.75356451  0.46402213    -0.82700
H957        H  0.01238423  0.79546207  0.43495836     0.13000
C958        C  0.50022651  0.83974790  0.45278884     0.02400
N959        N  0.47446246  0.82577812  0.51358754    -0.81300
H960        H  0.47904097  0.78353469  0.04121737     0.17800
C961        C  0.47150390  0.83401183  0.44379544    -0.26200
C962        C  0.46806254  0.85221023  0.42222738     0.35900
C963        C  0.49388582  0.87690990  0.40895916    -0.20200
C964        C  0.01179905  0.87268259  0.41394992    -0.25400
C965        C  0.01343672  0.85345957  0.43537077     0.27200
H966        H  0.45148074  0.81462189  0.45288674     0.13000
N967        N  0.43817970  0.84500760  0.41365510    -0.82700
H968        H  0.03277785  0.89139827  0.40554145     0.17900
N969        N  0.04230903  0.85911628  0.44583603    -0.81300
H970        H  0.42686002  0.82301575  0.40517506     0.33500
H971        H  0.42679572  0.84549143  0.43312415     0.38000
H972        H  0.05478227  0.85903750  0.42711644     0.33400
H973        H  0.05354228  0.88063647  0.45543695     0.30100
H974        H  0.47025711  0.82305009  0.03678818     0.33500
H975        H  0.49129663  0.84826180  0.51673841     0.30100
H976        H  0.04025907  0.76983862  0.45976724     0.38000
H977        H  0.00777275  0.74312557  0.44353055     0.33500
C978        C  0.48651908  0.55385686  0.25626956    -0.20300
C979        C  0.47909290  0.57582592  0.26555227     0.36000
C980        C  0.48325184  0.59868727  0.24550006    -0.26200
C981        C  0.49456793  0.60044393  0.21630728     0.02400
C982        C  0.50222707  0.57885106  0.20685564     0.27200
C983        C  0.49784088  0.55556471  0.22684836    -0.25400
N984        N  0.46725420  0.57496858  0.29531102    -0.82700
H985        H  0.47724634  0.61521947  0.25259684     0.13000
C986        C  0.49761323  0.62514986  0.19642323     0.02400
N987        N  0.51488432  0.58097243  0.17730487    -0.81300
H988        H  0.50405263  0.53920734  0.21971383     0.17800
C989        C  0.98411224  0.61969066  0.17016179    -0.26200
C990        C  0.98483903  0.64299065  0.15268780     0.35900
C991        C  0.49645919  0.67257453  0.16507183    -0.20200
C992        C  0.48009195  0.64281870  0.15428020    -0.25400
C993        C  0.48019685  0.61907371  0.16996537     0.27200
H994        H  0.99700839  0.60929437  0.16296742     0.13000
N995        N  0.00237700  0.65249280  0.12528695    -0.82700
H996        H  0.46611017  0.63776049  0.13430173     0.17900
N997        N  0.46140130  0.58868076  0.15984225    -0.81300
H998        H  0.02042202  0.67435144  0.12879650     0.33500
H999        H  0.01192982  0.63905544  0.12076080     0.38000
H1000       H  0.43900921  0.58402776  0.15948343     0.33400
H1001       H  0.46769552  0.58720233  0.13768180     0.30100
H1002       H  0.94306653  0.52593845  0.17844783     0.33500
H1003       H  0.51934930  0.56343362  0.17388018     0.30100
H1004       H  0.44583877  0.55569989  0.29665472     0.38000
H1005       H  0.46404789  0.59331525  0.29876854     0.33500
C1006       C  0.48644332  0.76327518  0.16833700    -0.20300
C1007       C  0.94978861  0.74748698  0.18893963     0.36000
C1008       C  0.95093075  0.77106499  0.20609777    -0.26200
C1009       C  0.48482674  0.80866262  0.20338158     0.02400
C1010       C  0.49947949  0.81591154  0.17501772     0.27200
C1011       C  0.49995584  0.79308550  0.15764697    -0.25400
N1012       N  0.92845624  0.71689719  0.19672943    -0.82700
H1013       H  0.93620367  0.76572873  0.22557817     0.13000
C1014       C  0.48602168  0.83217314  0.22388354     0.02400
N1015       N  0.51408392  0.84644013  0.16421623    -0.81300
H1016       H  0.51164562  0.79876537  0.13609732     0.17800
C1017       C  0.00206574  0.84255640  0.23548589    -0.26200
C1018       C  0.00524313  0.86351356  0.25767512     0.35900
C1019       C  0.48900013  0.87278438  0.26916258    -0.20200
C1020       C  0.46123287  0.85224163  0.25549248    -0.25400
C1021       C  0.45949699  0.83191785  0.23308841     0.27200
H1022       H  0.02088496  0.83900548  0.23097041     0.13000
N1023       N  0.03331469  0.87969795  0.27362630    -0.82700
H1024       H  0.44064094  0.85163426  0.26258271     0.17900
N1025       N  0.43086126  0.81063787  0.21998712    -0.81300
H1026       H  0.03769954  0.86404031  0.28406692     0.33500
H1027       H  0.05045467  0.89169908  0.25779884     0.38000
H1028       H  0.41356386  0.81353696  0.22894863     0.33400
H1029       H  0.43199911  0.81537834  0.19688661     0.30100
H1030       H  0.52397283  0.84809269  0.14306412     0.33500
H1031       H  0.49732968  0.85215388  0.16105703     0.30100
H1032       H  0.93265040  0.71324423  0.21899525     0.38000
H1033       H  0.90675803  0.71411109  0.19590739     0.33500
C1034       C  0.37816332  0.97566933  0.40537832    -0.20300
C1035       C  0.37486041  0.00047564  0.41369683     0.36000
C1036       C  0.35329624  0.99676060  0.43561852    -0.26200
C1037       C  0.33486810  0.96873458  0.44945485     0.02400
C1038       C  0.33879857  0.94424376  0.44211676     0.27200
C1039       C  0.36020176  0.94790050  0.42015337    -0.25400
N1040       N  0.40560543  0.52341693  0.41282432    -0.82700
H1041       H  0.36193144  0.51088310  0.45224999     0.13000
C1042       C  0.31000583  0.96461591  0.46984244     0.02400
N1043       N  0.32072000  0.91562479  0.45679018    -0.81300
H1044       H  0.36256781  0.92868797  0.41438757     0.17800
C1045       C  0.28007234  0.94414270  0.46149643    -0.26200
C1046       C  0.25571229  0.94031012  0.47931222     0.35900
C1047       C  0.26118833  0.95733048  0.50598853    -0.20200
C1048       C  0.29046178  0.97418363  0.01519780    -0.25400
C1049       C  0.31572249  0.98098579  0.49701639     0.27200
H1050       H  0.27708735  0.43730244  0.43484078     0.13000
N1051       N  0.22737392  0.43039729  0.46190764    -0.82700
H1052       H  0.29563130  0.98607761  0.03657079     0.17900
N1053       N  0.34506951  0.99370249  0.00731822    -0.81300
H1054       H  0.21409095  0.41162023  0.47550246     0.33500
H1055       H  0.22717637  0.42216154  0.44022723     0.38000
H1056       H  0.34609743  0.00319281  0.02852375     0.33400
H1057       H  0.35686977  0.98898448  0.51012252     0.30100
H1058       H  0.32609458  0.89977764  0.44858673     0.33500
H1059       H  0.32638445  0.91856928  0.47972872     0.30100
H1060       H  0.41794049  0.53248366  0.43270404     0.38000
H1061       H  0.39672010  0.53692949  0.40617403     0.33500
C1062       C  0.06099341  0.97090911  0.41081481    -0.20300
C1063       C  0.09010514  0.97742328  0.40133798     0.36000
C1064       C  0.10881336  0.97312266  0.42123446    -0.26200
C1065       C  0.09901898  0.96167444  0.45039446     0.02400
C1066       C  0.06998812  0.95513045  0.46010786     0.27200
C1067       C  0.05140210  0.96013946  0.44031709    -0.25400
N1068       N  0.10385362  0.50342441  0.37714821    -0.82700
H1069       H  0.13496800  0.49367311  0.41846680     0.13000
C1070       C  0.11994668  0.95748634  0.47043208     0.02400
N1071       N  0.05934261  0.94302882  0.48980172    -0.81300
H1072       H  0.02901799  0.95478744  0.44767772     0.17800
C1073       C  0.12605565  0.47110611  0.50075711    -0.26200
C1074       C  0.14587059  0.46516077  0.01837114     0.35900
C1075       C  0.16361742  0.95661908  0.00834498    -0.20200
C1076       C  0.15589976  0.94038406  0.47878875    -0.25400
C1077       C  0.13390952  0.94123078  0.46056955     0.27200
H1078       H  0.11222880  0.47941073  0.51061517     0.13000
N1079       N  0.15307266  0.47833951  0.04806664    -0.82700
H1080       H  0.16677772  0.92816211  0.47092831     0.17900
N1081       N  0.12607021  0.92605714  0.43183821    -0.81300
H1082       H  0.13970326  0.48778216  0.05352125     0.33500
H1083       H  0.17545158  0.49616087  0.04753270     0.38000
H1084       H  0.13847493  0.91526923  0.42788951     0.33400
H1085       H  0.10333147  0.90919747  0.43282541     0.30100
H1086       H  0.03757072  0.93947018  0.49342413     0.33500
H1087       H  0.05639781  0.91696408  0.98591961     0.30100
H1088       H  0.12175863  0.52492803  0.38230270     0.38000
H1089       H  0.11259692  0.49226235  0.36458462     0.33500
C1090       C  0.37600941  0.97338190  0.26934042    -0.20300
C1091       C  0.38469029  0.99604316  0.24710106     0.36000
C1092       C  0.36279969  0.99540417  0.22749314    -0.26200
C1093       C  0.33259718  0.97227523  0.22920974     0.02400
C1094       C  0.32393367  0.94902059  0.25056452     0.27200
C1095       C  0.34577029  0.94973160  0.27036277    -0.25400
N1096       N  0.41576563  0.01925569  0.24407001    -0.82700
H1097       H  0.36928035  0.01295947  0.21069357     0.13000
C1098       C  0.31023654  0.97294033  0.20859949     0.02400
N1099       N  0.29302963  0.92486103  0.25205250    -0.81300
H1100       H  0.33893480  0.93223532  0.28728013     0.17800
C1101       C  0.30476749  0.95871556  0.18038369    -0.26200
C1102       C  0.28329990  0.95852751  0.16034274     0.35900
C1103       C  0.26718658  0.97315569  0.16878703    -0.20200
C1104       C  0.27345963  0.98800430  0.19692823    -0.25400
C1105       C  0.29477122  0.98803902  0.21687146     0.27200
H1106       H  0.31135840  0.43323101  0.16748256     0.13000
N1107       N  0.26824137  0.42674507  0.12940285    -0.82700
H1108       H  0.26158932  0.99962434  0.20354270     0.17900
N1109       N  0.30103323  0.00361293  0.24534449    -0.81300
H1110       H  0.26140511  0.40455945  0.13552143     0.33500
H1111       H  0.28707155  0.43450265  0.11518531     0.38000
H1112       H  0.28810846  0.01406847  0.24776274     0.33400
H1113       H  0.29415775  0.98755855  0.26256066     0.30100
H1114       H  0.29049162  0.90933488  0.26872180     0.33500
H1115       H  0.27971653  0.93399395  0.25877859     0.30100
H1116       H  0.42787872  0.00884070  0.23725599     0.38000
H1117       H  0.41831536  0.03431128  0.22686457     0.33500
C1118       C  0.05815773  0.97234621  0.25665730    -0.20300
C1119       C  0.06023616  0.98200759  0.22646775     0.36000
C1120       C  0.08142154  0.98111424  0.20691363    -0.26200
C1121       C  0.10043543  0.97065771  0.21708923     0.02400
C1122       C  0.09734517  0.95953187  0.24673121     0.27200
C1123       C  0.07641139  0.96069130  0.26627314    -0.25400
N1124       N  0.04194081  0.99396727  0.21594626    -0.82700
H1125       H  0.08380256  0.98962362  0.18406395     0.13000
C1126       C  0.12493626  0.97319494  0.19741455     0.02400
N1127       N  0.11576817  0.94741428  0.25687793    -0.81300
H1128       H  0.07447921  0.95256339  0.28923343     0.17800
C1129       C  0.15493168  0.99217315  0.20652780    -0.26200
C1130       C  0.17907663  0.99378046  0.18996301     0.35900
C1131       C  0.17296002  0.97576351  0.16385361    -0.20200
C1132       C  0.14294191  0.95793335  0.15388989    -0.25400
C1133       C  0.11876252  0.95627089  0.17063550     0.27200
H1134       H  0.16102143  0.50576262  0.22060939     0.13000
N1135       N  0.20838256  0.50825293  0.19186396    -0.82700
H1136       H  0.13824199  0.94424063  0.13376043     0.17900
N1137       N  0.08801532  0.93686932  0.16112055    -0.81300
H1138       H  0.21081238  0.52337808  0.20897328     0.33500
H1139       H  0.21701294  0.52094768  0.17211144     0.38000
H1140       H  0.08738479  0.92600028  0.14089902     0.33400
H1141       H  0.07733725  0.92002210  0.17746109     0.30100
H1142       H  0.11076016  0.94025784  0.27935016     0.33500
H1143       H  0.11001763  0.92821984  0.24394166     0.30100
H1144       H  0.02946214  0.98114727  0.19737953     0.38000
H1145       H  0.05633325  0.01603535  0.20854854     0.33500
C1146       C  0.41224907  0.90566929  0.41612208    -0.20300
C1147       C  0.40713726  0.91572053  0.44410573     0.36000
C1148       C  0.38344133  0.89512508  0.46287696    -0.26200
C1149       C  0.36518135  0.86485076  0.45428673     0.02400
C1150       C  0.37133452  0.85464552  0.42707066     0.27200
C1151       C  0.39439457  0.87521823  0.40811270    -0.25400
N1152       N  0.42523636  0.94678007  0.45294477    -0.82700
H1153       H  0.37861026  0.90284551  0.48383224     0.13000
C1154       C  0.33894728  0.84391434  0.47314509     0.02400
N1155       N  0.35403077  0.82334519  0.41879028    -0.81300
H1156       H  0.39852684  0.86734797  0.38687117     0.17800
C1157       C  0.31019606  0.82868034  0.45979810    -0.26200
C1158       C  0.28517505  0.80592745  0.47532123     0.35900
C1159       C  0.29071593  0.79313748  0.00776085    -0.20200
C1160       C  0.32087444  0.80703740  0.01768252    -0.25400
C1161       C  0.34252281  0.83761525  0.50333310     0.27200
H1162       H  0.30747918  0.83414300  0.43678303     0.13000
N1163       N  0.25614692  0.79029074  0.46072383    -0.82700
H1164       H  0.32613756  0.79954373  0.03849174     0.17900
N1165       N  0.37180627  0.85315746  0.51742034    -0.81300
H1166       H  0.25750729  0.79813582  0.43864722     0.33500
H1167       H  0.24157875  0.79542181  0.47254203     0.38000
H1168       H  0.37657566  0.83266717  0.03032629     0.33400
H1169       H  0.38587101  0.84717607  0.50586254     0.30100
H1170       H  0.36130204  0.81957970  0.39797897     0.33500
H1171       H  0.35838344  0.81110774  0.43487192     0.30100
H1172       H  0.42106360  0.95974026  0.43763585     0.38000
H1173       H  0.41851702  0.95028547  0.47418374     0.33500
C1174       C  0.19703790  0.69791446  0.50261282    -0.20300
C1175       C  0.17109700  0.67327519  0.51600305     0.36000
C1176       C  0.15009537  0.64969061  0.49756245    -0.26200
C1177       C  0.15452787  0.65003715  0.46635314     0.02400
C1178       C  0.18000616  0.67434282  0.45287359     0.27200
C1179       C  0.20097290  0.69796522  0.47107527    -0.25400
N1180       N  0.18584988  0.65673716  0.04800606    -0.82700
H1181       H  0.13006132  0.63097024  0.50750156     0.13000
C1182       C  0.13128267  0.62594492  0.44744894     0.02400
N1183       N  0.18401632  0.67526915  0.42061076    -0.81300
H1184       H  0.22055008  0.71650330  0.46037050     0.17800
C1185       C  0.10805897  0.62981283  0.43596480    -0.26200
C1186       C  0.08744250  0.60950778  0.41498714     0.35900
C1187       C  0.09016443  0.58469723  0.40504413    -0.20200
C1188       C  0.11258313  0.58005743  0.41813500    -0.25400
C1189       C  0.13327605  0.60054455  0.43917632     0.27200
H1190       H  0.10645245  0.64927076  0.44269942     0.13000
N1191       N  0.06431958  0.61476773  0.40349716    -0.82700
H1192       H  0.11454341  0.56084596  0.41143571     0.17900
N1193       N  0.15636016  0.59579999  0.45201329    -0.81300
H1194       H  0.07477162  0.63602692  0.39332147     0.33500
H1195       H  0.05151836  0.61515668  0.42177112     0.38000
H1196       H  0.15440848  0.57576941  0.44387370     0.33400
H1197       H  0.18064202  0.61572853  0.94322497     0.30100
H1198       H  0.20357059  0.69510162  0.41415346     0.33500
H1199       H  0.18740493  0.65750687  0.41456838     0.30100
H1200       H  0.20762472  0.65969753  0.04857749     0.38000
H1201       H  0.14411872  0.65443027  0.55335961     0.33500
C1202       C  0.41156235  0.89901187  0.26186453    -0.20300
C1203       C  0.38116492  0.87945118  0.27033613     0.36000
C1204       C  0.36148079  0.85720937  0.25027008    -0.26200
C1205       C  0.37156021  0.85330959  0.22204581     0.02400
C1206       C  0.40194784  0.87279186  0.21339170     0.27200
C1207       C  0.42158299  0.89571978  0.23330039    -0.25400
N1208       N  0.36998925  0.88223307  0.29919266    -0.82700
H1209       H  0.33804397  0.84280661  0.25685504     0.13000
C1210       C  0.34963040  0.82881864  0.20203372     0.02400
N1211       N  0.41280616  0.86899545  0.18467092    -0.81300
H1212       H  0.44498458  0.91050305  0.22685355     0.17800
C1213       C  0.34473544  0.83562910  0.17261266    -0.26200
C1214       C  0.32186746  0.81362103  0.15431309     0.35900
C1215       C  0.30314654  0.78422334  0.16571822    -0.20200
C1216       C  0.30891296  0.77725426  0.19480049    -0.25400
C1217       C  0.33201789  0.79908745  0.21293892     0.27200
H1218       H  0.35801729  0.85844864  0.16413660     0.13000
N1219       N  0.31714001  0.82166176  0.12467814    -0.82700
H1220       H  0.29514568  0.75465014  0.20364560     0.17900
N1221       N  0.33740046  0.79129977  0.24259154    -0.81300
H1222       H  0.31280450  0.83942584  0.12676359     0.33500
H1223       H  0.33718566  0.82943201  0.11235845     0.38000
H1224       H  0.32227618  0.76860478  0.24733575     0.33400
H1225       H  0.35906257  0.79398932  0.24257376     0.30100
H1226       H  0.43574404  0.88491961  0.18195804     0.33500
H1227       H  0.41111241  0.84785720  0.18468631     0.30100
H1228       H  0.36171513  0.86178145  0.31067443     0.38000
H1229       H  0.35191548  0.88593459  0.29558113     0.33500
C1230       C  0.20392167  0.69255338  0.16862206    -0.20300
C1231       C  0.17313780  0.68045850  0.16120677     0.36000
C1232       C  0.15070631  0.65922311  0.18044647    -0.26200
C1233       C  0.15853359  0.64984473  0.20695485     0.02400
C1234       C  0.18925999  0.66173590  0.21439685     0.27200
C1235       C  0.21162973  0.68292447  0.19512599    -0.25400
N1236       N  0.16451356  0.69034966  0.13475904    -0.82700
H1237       H  0.12707129  0.65007370  0.17473322     0.13000
C1238       C  0.13450187  0.62740654  0.22681102     0.02400
N1239       N  0.19755343  0.65246824  0.24167474    -0.81300
H1240       H  0.23524488  0.69213133  0.20095433     0.17800
C1241       C  0.13287246  0.59968121  0.23143069    -0.26200
C1242       C  0.11197711  0.57855276  0.25173103     0.35900
C1243       C  0.09223194  0.58523121  0.26799908    -0.20200
C1244       C  0.09313151  0.61264720  0.26232431    -0.25400
C1245       C  0.11420065  0.63388340  0.24200854     0.27200
H1246       H  0.14822462  0.59454433  0.21940010     0.13000
N1247       N  0.11097082  0.55037571  0.25557402    -0.82700
H1248       H  0.07812972  0.61808805  0.27455545     0.17900
N1249       N  0.11560641  0.66226500  0.23733937    -0.81300
H1250       H  0.10687207  0.53988866  0.23445406     0.33500
H1251       H  0.13226410  0.55481798  0.26287177     0.38000
H1252       H  0.09898571  0.66341880  0.25010805     0.33400
H1253       H  0.13650263  0.67922620  0.24545792     0.30100
H1254       H  0.22109040  0.66316941  0.24371287     0.33500
H1255       H  0.18982523  0.65971545  0.25994136     0.30100
H1256       H  0.15127155  0.67149752  0.12125012     0.38000
H1257       H  0.15110007  0.69936306  0.14154624     0.33500
C1258       C  0.22674661  0.71689100  0.64510813     0.79800
N1259       N  0.22419697  0.71942049  0.61485897    -0.78500
C1260       C  0.24653865  0.74296826  0.59939452     0.82300
N1261       N  0.27156696  0.76394973  0.61419064    -0.78400
C1262       C  0.27448316  0.76171477  0.64438167     0.82400
N1263       N  0.25195834  0.73806255  0.65958628    -0.80100
C1264       C  0.22038351  0.72386906  0.52042142     0.79800
N1265       N  0.24189474  0.74887843  0.50589807    -0.78500
C1266       C  0.26433341  0.77226039  0.52141516     0.82300
N1267       N  0.26546921  0.77022491  0.55189970    -0.78400
C1268       C  0.24417500  0.74546365  0.56672571     0.82400
N1269       N  0.22173802  0.72240996  0.55095702    -0.80100
C1270       C  0.24279165  0.97058924  0.64834387     0.79800
N1271       N  0.24049668  0.96593278  0.61797684    -0.78500
C1272       C  0.21705489  0.96469803  0.60234875     0.82300
N1273       N  0.19578382  0.96829827  0.61714866    -0.78400
C1274       C  0.19815655  0.97358440  0.64733915     0.82400
N1275       N  0.22154966  0.97458081  0.66272836    -0.80100
C1276       C  0.23595975  0.95633234  0.52340992     0.79800
N1277       N  0.23761552  0.95955935  0.55396759    -0.78500
C1278       C  0.21503732  0.96032777  0.56949388     0.82300
N1279       N  0.19110041  0.95845480  0.55431292    -0.78400
C1280       C  0.18940020  0.95560837  0.52377808     0.82400
N1281       N  0.21186647  0.95445316  0.50854429    -0.80100
C1282       C  0.48022316  0.73183274  0.64962434     0.79800
N1283       N  0.47647640  0.70638148  0.66302493    -0.78500
C1284       C  0.47706842  0.68430838  0.64668123     0.82300
N1285       N  0.48142980  0.68782173  0.61633319    -0.78400
C1286       C  0.48524055  0.71312512  0.60241811     0.82400
N1287       N  0.48476565  0.73516154  0.61915409    -0.80100
C1288       C  0.49918788  0.74397929  0.52405334     0.79800
N1289       N  0.49403926  0.74124880  0.55448461    -0.78500
C1290       C  0.49037155  0.71643578  0.56946076     0.82300
N1291       N  0.49160374  0.69427901  0.55385979    -0.78400
C1292       C  0.49645372  0.69648033  0.52357742     0.82400
N1293       N  0.50020324  0.72140264  0.50893206    -0.80100
O1294       O  0.01026629  0.91054867  0.86952309    -0.88600
C1295       C  0.07447800  0.56443561  0.78905602     1.11500
O1296       O  0.48590762  0.94580410  0.83492694    -1.36400
O1297       O  0.07927715  0.54436970  0.86866086    -0.90000
O1298       O  0.46226893  0.88666582  0.87117768    -0.90700
O1299       O  0.45433912  0.94609858  0.89877487    -0.79500
O1300       O  0.04550775  0.97771328  0.86454147    -1.01600
C1301       C  0.48294203  0.53013550  0.89210115     1.21500
O1302       O  0.45351376  0.97607127  0.83526121    -1.36500
Mn1303     Mn  0.48488982  0.97668188  0.80209378     1.82100
O1304       O  0.48462326  0.50765430  0.90034993    -0.78600
O1305       O  0.05471385  0.56992323  0.86671507    -0.88000
C1306       C  0.47965531  0.52789466  0.78116701     1.12600
C1307       C  0.07449846  0.56498957  0.87833846     1.07300
O1308       O  0.45417772  0.94456680  0.77156358    -0.79500
O1309       O  0.01895572  0.50939482  0.83380184    -1.33200
O1310       O  0.42698674  0.91643554  0.80711890    -0.98800
C1311       C  0.39668197  0.97404617  0.87964779     1.06000
Mn1312     Mn  0.02141569  0.55187738  0.83339528     1.48600
O1313       O  0.39198108  0.94962703  0.86746058    -0.88000
Mn1314     Mn  0.44624436  0.90265883  0.83622573     1.49600
O1315       O  0.01026559  0.91119222  0.80139606    -0.91800
C1316       C  0.04064446  0.97730551  0.89156059     1.21400
C1317       C  0.48662121  0.88980428  0.79118876     1.11300
Mn1318     Mn  0.48559450  0.97706218  0.86763289     1.81000
O1319       O  0.47985238  0.53257167  0.80821726    -0.97000
Mn1320     Mn  0.02597332  0.94399486  0.83583553     1.49300
C1321       C  0.48807422  0.89193694  0.88034781     1.07800
Mn1322     Mn  0.44688663  0.51209381  0.83784788     1.49900
C1323       C  0.39779841  0.97498903  0.79092642     1.10700
O1324       O  0.42644984  0.91746838  0.86384331    -1.02800
O1325       O  0.05375573  0.56906946  0.79882625    -0.92400
C1326       C  0.43064321  0.92270193  0.89084297     1.22000
O1327       O  0.48157572  0.53353126  0.86501150    -1.03200
O1328       O  0.07964104  0.54481077  0.80051926    -0.90600
O1329       O  0.41315936  0.49479044  0.80487103    -0.90200
O1330       O  0.46156073  0.88422668  0.80293067    -0.90200
Mn1331     Mn  0.06167028  0.51182696  0.83407162     1.47900
O1332       O  0.48098564  0.50520179  0.77301756    -0.78700
C1333       C  0.43144429  0.92059640  0.78004522     1.15100
O1334       O  0.01750164  0.97795549  0.89968740    -0.77400
O1335       O  0.01782386  0.97859657  0.77266909    -0.77000
Mn1336     Mn  0.41126540  0.93526095  0.83458301     1.51100
O1337       O  0.41473898  0.49505143  0.87313476    -0.89400
O1338       O  0.04554156  0.97819179  0.80783971    -0.96900
O1339       O  0.39407881  0.94977079  0.79971721    -0.91900
C1340       C  0.04121208  0.97848744  0.78078025     1.12800
C1341       C  0.48367893  0.55278000  0.91388084    -0.20300
C1342       C  0.47554569  0.57415046  0.90469122     0.36000
C1343       C  0.47869219  0.59672435  0.92469809    -0.26200
C1344       C  0.49012544  0.59902710  0.95394998     0.02400
C1345       C  0.99787850  0.57636711  0.96249310     0.27200
C1346       C  0.99567776  0.55443722  0.94182489    -0.25400
N1347       N  0.46396679  0.57312455  0.87497401    -0.82700
H1348       H  0.47221515  0.61276867  0.91718826     0.13000
C1349       C  0.49376444  0.62427546  0.97370611     0.02400
N1350       N  0.00609025  0.57578244  0.99342753    -0.81300
H1351       H  0.00019054  0.53705138  0.94946603     0.17800
C1352       C  0.47871759  0.61797075  0.00166670    -0.26200
C1353       C  0.48416010  0.64206962  0.51729144     0.35900
C1354       C  0.49759518  0.67203866  0.50640964    -0.20200
C1355       C  0.50980197  0.67732165  0.98080947    -0.25400
C1356       C  0.51015340  0.65445711  0.96361854     0.27200
H1357       H  0.47288448  0.59651590  0.50729563     0.13000
N1358       N  0.46942595  0.63400620  0.54615126    -0.82700
H1359       H  0.52215171  0.70033251  0.97268096     0.17900
N1360       N  0.52708721  0.66176503  0.93586356    -0.81300
H1361       H  0.44687162  0.61726455  0.54282370     0.33500
H1362       H  0.47983835  0.62484954  0.55923062     0.38000
H1363       H  0.53740023  0.68483438  0.93133019     0.33400
H1364       H  0.54458072  0.65711279  0.93898060     0.30100
H1365       H  0.00919602  0.55742714  0.99719313     0.33500
H1366       H  0.02703401  0.59519019  0.99716465     0.30100
H1367       H  0.47822012  0.59369542  0.86434702     0.38000
H1368       H  0.44256286  0.57088664  0.87710211     0.33500
C1369       C  0.49743605  0.76870033  0.00556822    -0.20300
C1370       C  0.50849573  0.77423484  0.97544256     0.36000
C1371       C  0.50737274  0.79662229  0.95831262    -0.26200
C1372       C  0.49660576  0.81461218  0.97060905     0.02400
C1373       C  0.48687034  0.81025183  0.00099609     0.27200
C1374       C  0.48874195  0.78658704  0.51839519    -0.25400
N1375       N  0.02201868  0.75796648  0.96451281    -0.82700
H1376       H  0.01479929  0.79959563  0.93586974     0.13000
C1377       C  0.49516302  0.83722876  0.95069498     0.02400
N1378       N  0.47665935  0.82914503  0.01427101    -0.81300
H1379       H  0.47716810  0.78019029  0.53999121     0.17800
C1380       C  0.46731626  0.83555513  0.94536527    -0.26200
C1381       C  0.46453832  0.85381266  0.92339567     0.35900
C1382       C  0.49005691  0.87410692  0.90603811    -0.20200
C1383       C  0.01215903  0.87600443  0.91757813    -0.25400
C1384       C  0.01329144  0.85610358  0.93867552     0.27200
H1385       H  0.44734434  0.81924023  0.95757841     0.13000
N1386       N  0.43569219  0.85141200  0.91881406    -0.82700
H1387       H  0.03310975  0.89571286  0.91066736     0.17900
N1388       N  0.04178914  0.86196954  0.95086970    -0.81300
H1389       H  0.42008525  0.82910497  0.91309574     0.33500
H1390       H  0.42881632  0.85630339  0.93928715     0.38000
H1391       H  0.05945071  0.88222073  0.94241081     0.33400
H1392       H  0.04116968  0.86475680  0.97422528     0.30100
H1393       H  0.46515809  0.81737626  0.53489465     0.33500
H1394       H  0.49503441  0.85117900  0.01458006     0.30100
H1395       H  0.03997960  0.76444469  0.97958395     0.38000
H1396       H  0.03167315  0.76668224  0.94339149     0.33500
C1397       C  0.47828381  0.54891536  0.75907191    -0.20300
C1398       C  0.48780689  0.57902660  0.76716329     0.36000
C1399       C  0.48517004  0.59810781  0.74644564    -0.26200
C1400       C  0.47297137  0.58792621  0.71763979     0.02400
C1401       C  0.46378386  0.55804809  0.70909830     0.27200
C1402       C  0.46676275  0.53885527  0.72985690    -0.25400
N1403       N  0.50060416  0.59060065  0.79630623    -0.82700
H1404       H  0.49275776  0.62119458  0.75294208     0.13000
C1405       C  0.47040740  0.60936350  0.69706086     0.02400
N1406       N  0.45099741  0.54721965  0.67969171    -0.81300
H1407       H  0.45931022  0.51577799  0.72350375     0.17800
C1408       C  0.99299544  0.62534305  0.66970490    -0.26200
C1409       C  0.99168952  0.64790342  0.65301265     0.35900
C1410       C  0.47367393  0.65716852  0.66235881    -0.20200
C1411       C  0.45551820  0.64686168  0.68844496    -0.25400
C1412       C  0.45361001  0.62306340  0.70576818     0.27200
H1413       H  0.00753484  0.61695457  0.66202540     0.13000
N1414       N  0.00936690  0.65916789  0.62597876    -0.82700
H1415       H  0.44302501  0.65769613  0.69558907     0.17900
N1416       N  0.43518342  0.61309661  0.73258837    -0.81300
H1417       H  0.03206535  0.66736911  0.63150402     0.33500
H1418       H  0.00263394  0.64114770  0.61098692     0.38000
H1419       H  0.42444001  0.62561058  0.73604107     0.33400
H1420       H  0.41808628  0.59079254  0.72901128     0.30100
H1421       H  0.95701013  0.53221225  0.67320700     0.33500
H1422       H  0.43071496  0.54749625  0.67856094     0.30100
H1423       H  0.48744402  0.59829266  0.80686824     0.38000
H1424       H  0.52235416  0.60906228  0.79317613     0.33500
C1425       C  0.48023080  0.75602878  0.66835824    -0.20300
C1426       C  0.95715274  0.74862725  0.69628511     0.36000
C1427       C  0.95891365  0.77226571  0.71380473    -0.26200
C1428       C  0.48221143  0.80306222  0.70382216     0.02400
C1429       C  0.49598525  0.80944459  0.67502447     0.27200
C1430       C  0.49476678  0.78586924  0.65754729    -0.25400
N1431       N  0.94101703  0.71851237  0.70790613    -0.82700
H1432       H  0.94868152  0.76734734  0.73609507     0.13000
C1433       C  0.48321149  0.82703478  0.72353731     0.02400
N1434       N  0.51109774  0.83978971  0.66367361    -0.81300
H1435       H  0.50556331  0.79094483  0.63554559     0.17800
C1436       C  0.00551083  0.84957721  0.73255385    -0.26200
C1437       C  0.00880026  0.87131709  0.75396733     0.35900
C1438       C  0.48616434  0.86955131  0.76654639    -0.20200
C1439       C  0.45811741  0.84648195  0.75559186    -0.25400
C1440       C  0.45640199  0.82533087  0.73424333     0.27200
H1441       H  0.02557070  0.85020970  0.72360776     0.13000
N1442       N  0.03859376  0.89418911  0.76275787    -0.82700
H1443       H  0.43730371  0.84458714  0.76396384     0.17900
N1444       N  0.42751037  0.80187085  0.72358727    -0.81300
H1445       H  0.04994540  0.88363766  0.77134559     0.33500
H1446       H  0.05012172  0.90621892  0.74341684     0.38000
H1447       H  0.40999608  0.80360605  0.73378168     0.33400
H1448       H  0.42640054  0.80526593  0.70043477     0.30100
H1449       H  0.52020481  0.84075167  0.64223911     0.33500
H1450       H  0.49479783  0.84618946  0.66099463     0.30100
H1451       H  0.95100157  0.71806578  0.72835707     0.38000
H1452       H  0.91875616  0.71310668  0.71239300     0.33500
C1453       C  0.37575675  0.97187032  0.90439824    -0.20300
C1454       C  0.37543172  0.99738404  0.91603742     0.36000
C1455       C  0.35367915  0.99367088  0.93769223    -0.26200
C1456       C  0.33207645  0.96497212  0.94815543     0.02400
C1457       C  0.33282621  0.93949582  0.93742366     0.27200
C1458       C  0.35458388  0.94318991  0.91576759    -0.25400
N1459       N  0.39441474  0.52068812  0.91153149    -0.82700
H1460       H  0.34985618  0.50464559  0.95100765     0.13000
C1461       C  0.30769823  0.96180267  0.96886790     0.02400
N1462       N  0.31130541  0.90994054  0.94839723    -0.81300
H1463       H  0.35469962  0.92336808  0.90754597     0.17800
C1464       C  0.27751186  0.94457264  0.95950777    -0.26200
C1465       C  0.25370563  0.94205597  0.97752468     0.35900
C1466       C  0.26023928  0.95760881  0.00544906    -0.20200
C1467       C  0.29120723  0.97708936  0.51493423    -0.25400
C1468       C  0.31425918  0.97644357  0.99716518     0.27200
H1469       H  0.27066015  0.42236966  0.94004857     0.13000
N1470       N  0.21995266  0.41197166  0.96726080    -0.82700
H1471       H  0.29553445  0.99019794  0.53543909     0.17900
N1472       N  0.34632733  0.00159063  0.50611955    -0.81300
H1473       H  0.21639974  0.39018897  0.96462584     0.33500
H1474       H  0.21845031  0.41989067  0.94594293     0.38000
H1475       H  0.34664438  0.01195670  0.52658610     0.33400
H1476       H  0.35317137  0.97879699  0.01014930     0.30100
H1477       H  0.31474061  0.89355689  0.93810158     0.33500
H1478       H  0.31535128  0.90936261  0.97147688     0.30100
H1479       H  0.40627094  0.53293186  0.93062956     0.38000
H1480       H  0.38215312  0.53033687  0.90307111     0.33500
C1481       C  0.06112504  0.97487217  0.91355270    -0.20300
C1482       C  0.09192175  0.98618442  0.90655601     0.36000
C1483       C  0.11031986  0.98160572  0.92661153    -0.26200
C1484       C  0.09856002  0.96496047  0.95328695     0.02400
C1485       C  0.06781635  0.95385457  0.96066949     0.27200
C1486       C  0.04949797  0.95929636  0.94087928    -0.25400
N1487       N  0.10576819  0.49972118  0.87599851    -0.82700
H1488       H  0.13412739  0.48683239  0.91802371     0.13000
C1489       C  0.11906871  0.95950627  0.97274693     0.02400
N1490       N  0.05518205  0.93660157  0.98779524    -0.81300
H1491       H  0.02578122  0.95027235  0.94619441     0.17800
C1492       C  0.12475137  0.46804621  0.00043526    -0.26200
C1493       C  0.14866929  0.47048482  0.51837245     0.35900
C1494       C  0.16427398  0.95531242  0.50676623    -0.20200
C1495       C  0.15876800  0.94689354  0.97807878    -0.25400
C1496       C  0.13666169  0.94799991  0.96028619     0.27200
H1497       H  0.11403277  0.48009814  0.00921241     0.13000
N1498       N  0.15256616  0.48012688  0.54939290    -0.82700
H1499       H  0.17253794  0.93865000  0.96797900     0.17900
N1500       N  0.13235267  0.93794313  0.92937716    -0.81300
H1501       H  0.13595888  0.48522045  0.55584185     0.33500
H1502       H  0.17330932  0.50021870  0.55098965     0.38000
H1503       H  0.14725018  0.93038267  0.92358753     0.33400
H1504       H  0.11050616  0.91939609  0.92751175     0.30100
H1505       H  0.03223126  0.92980292  0.98968023     0.33500
H1506       H  0.05761347  0.92188011  0.49076443     0.30100
H1507       H  0.12450154  0.52075053  0.88105903     0.38000
H1508       H  0.11342563  0.48731179  0.86394080     0.33500
C1509       C  0.37908799  0.97546201  0.76542012    -0.20300
C1510       C  0.38135174  0.00259410  0.75492791     0.36000
C1511       C  0.36098182  0.00152912  0.73319647    -0.26200
C1512       C  0.33844830  0.97402368  0.72141364     0.02400
C1513       C  0.33726195  0.94708222  0.73010157     0.27200
C1514       C  0.35767428  0.94807266  0.75191580    -0.25400
N1515       N  0.40384523  0.03131476  0.76650189    -0.82700
H1516       H  0.36217763  0.02230499  0.72611164     0.13000
C1517       C  0.31457172  0.97363299  0.70231535     0.02400
N1518       N  0.31475900  0.91877751  0.71744257    -0.81300
H1519       H  0.35610691  0.92716823  0.75903422     0.17800
C1520       C  0.31149699  0.96435217  0.67212362    -0.26200
C1521       C  0.28832088  0.96292905  0.65382411     0.35900
C1522       C  0.26803353  0.97148822  0.66606570    -0.20200
C1523       C  0.27162304  0.98100772  0.69641650    -0.25400
C1524       C  0.29443417  0.98193378  0.71464212     0.27200
H1525       H  0.32249203  0.44753339  0.66354623     0.13000
N1526       N  0.28080497  0.44229605  0.62341965    -0.82700
H1527       H  0.25645574  0.98766489  0.70624545     0.17900
N1528       N  0.29710125  0.99100960  0.74579983    -0.81300
H1529       H  0.29750756  0.43693354  0.61825296     0.33500
H1530       H  0.26009099  0.42212904  0.62218816     0.38000
H1531       H  0.28066021  0.99661714  0.75136736     0.33400
H1532       H  0.29267750  0.97242141  0.75912612     0.30100
H1533       H  0.31713006  0.90110970  0.72600510     0.33500
H1534       H  0.29354669  0.91484255  0.72451473     0.30100
H1535       H  0.41697079  0.04443702  0.74835746     0.38000
H1536       H  0.39283896  0.04189760  0.77595424     0.33500
C1537       C  0.06337969  0.97873895  0.75888313    -0.20300
C1538       C  0.06146237  0.98225598  0.72745312     0.36000
C1539       C  0.08349470  0.98277255  0.70804125    -0.26200
C1540       C  0.10729753  0.97951777  0.71938005     0.02400
C1541       C  0.10908257  0.97559841  0.75068728     0.27200
C1542       C  0.08735202  0.97554565  0.77006480    -0.25400
N1543       N  0.03738430  0.98546993  0.71508401    -0.82700
H1544       H  0.08205942  0.98581323  0.68398458     0.13000
C1545       C  0.13013901  0.97979835  0.69846388     0.02400
N1546       N  0.13276845  0.97127175  0.76262297    -0.81300
H1547       H  0.08904344  0.97261715  0.79409464     0.17800
C1548       C  0.16084953  0.00082325  0.70315806    -0.26200
C1549       C  0.18346689  0.99977836  0.68608087     0.35900
C1550       C  0.17511117  0.97744122  0.66362165    -0.20200
C1551       C  0.14436213  0.95753085  0.65771431    -0.25400
C1552       C  0.12173251  0.95818352  0.67524259     0.27200
H1553       H  0.16460620  0.50710975  0.72363304     0.13000
N1554       N  0.21234909  0.50837473  0.69746153    -0.82700
H1555       H  0.13803419  0.94047074  0.64037634     0.17900
N1556       N  0.09037108  0.93634895  0.67030306    -0.81300
H1557       H  0.21414893  0.52071545  0.71694710     0.33500
H1558       H  0.22458311  0.52406890  0.68053898     0.38000
H1559       H  0.08804261  0.92206219  0.65236275     0.33400
H1560       H  0.08234092  0.92282916  0.68961663     0.30100
H1561       H  0.13100538  0.96892203  0.78613785     0.33500
H1562       H  0.12962530  0.95092943  0.75399553     0.30100
H1563       H  0.02570606  0.96811610  0.69945476     0.38000
H1564       H  0.04693660  0.00597295  0.70348239     0.33500
C1565       C  0.40775067  0.90168040  0.91280891    -0.20300
C1566       C  0.40611395  0.90992610  0.94297698     0.36000
C1567       C  0.38330480  0.88886409  0.96224542    -0.26200
C1568       C  0.36206535  0.85992312  0.95194754     0.02400
C1569       C  0.36377017  0.85170535  0.92189851     0.27200
C1570       C  0.38633562  0.87267586  0.90267841    -0.25400
N1571       N  0.42705841  0.93969737  0.95380030    -0.82700
H1572       H  0.38168749  0.89520241  0.98524810     0.13000
C1573       C  0.33780105  0.83834687  0.97250139     0.02400
N1574       N  0.34270626  0.82193144  0.91108859    -0.81300
H1575       H  0.38741035  0.86607876  0.87963550     0.17800
C1576       C  0.30751432  0.82566361  0.96350846    -0.26200
C1577       C  0.28404154  0.80301459  0.98064131     0.35900
C1578       C  0.28894913  0.79845094  0.50514212    -0.20200
C1579       C  0.31740271  0.81520758  0.51914488    -0.25400
C1580       C  0.34457179  0.82922690  0.00007375     0.27200
H1581       H  0.30209804  0.83296733  0.94265166     0.13000
N1582       N  0.25343376  0.79020060  0.97041739    -0.82700
H1583       H  0.32051599  0.80985489  0.54205622     0.17900
N1584       N  0.37548644  0.84174807  0.00954281    -0.81300
H1585       H  0.25190099  0.78096688  0.94896098     0.33500
H1586       H  0.24853896  0.80758040  0.96831481     0.38000
H1587       H  0.37052968  0.84595676  0.53975491     0.33400
H1588       H  0.38633809  0.83519486  0.99376997     0.30100
H1589       H  0.34683982  0.81958849  0.88837018     0.33500
H1590       H  0.34647463  0.80669795  0.92327599     0.30100
H1591       H  0.42280075  0.95480657  0.94200186     0.38000
H1592       H  0.42308069  0.94180040  0.97662782     0.33500
C1593       C  0.19800220  0.69408846  0.00702068    -0.20300
C1594       C  0.18094097  0.66413833  0.01801451     0.36000
C1595       C  0.15930562  0.64136010  0.99904943    -0.26200
C1596       C  0.15462631  0.64783371  0.96940732     0.02400
C1597       C  0.17157558  0.67754625  0.95849009     0.27200
C1598       C  0.19272849  0.70025722  0.97738856    -0.25400
N1599       N  0.16560995  0.67236946  0.54797626    -0.82700
H1600       H  0.14616182  0.61843816  0.00729018     0.13000
C1601       C  0.13193681  0.62376023  0.94952895     0.02400
N1602       N  0.16742865  0.68446227  0.92798592    -0.81300
H1603       H  0.20539858  0.72300094  0.96862697     0.17800
C1604       C  0.10783582  0.62664177  0.93867524    -0.26200
C1605       C  0.08857929  0.60754488  0.91606909     0.35900
C1606       C  0.09302738  0.58444143  0.90404689    -0.20200
C1607       C  0.11624058  0.58053402  0.91635305    -0.25400
C1608       C  0.13589496  0.60012324  0.93875132     0.27200
H1609       H  0.10461716  0.64468541  0.94706389     0.13000
N1610       N  0.06501716  0.61236068  0.90509099    -0.82700
H1611       H  0.11978137  0.56277217  0.90782767     0.17900
N1612       N  0.16040130  0.59670881  0.94985740    -0.81300
H1613       H  0.07496755  0.63430952  0.89661377     0.33500
H1614       H  0.05136203  0.61075374  0.92341389     0.38000
H1615       H  0.16010686  0.57814738  0.93974434     0.33400
H1616       H  0.17735112  0.61322680  0.44463754     0.30100
H1617       H  0.18145796  0.70741981  0.92346588     0.33500
H1618       H  0.17429134  0.67294451  0.91345305     0.30100
H1619       H  0.18097982  0.66767637  0.55868476     0.38000
H1620       H  0.17092335  0.63398588  0.05270548     0.33500
C1621       C  0.41023278  0.89787314  0.75833283    -0.20300
C1622       C  0.37984060  0.87782542  0.76644729     0.36000
C1623       C  0.36045301  0.85599205  0.74589656    -0.26200
C1624       C  0.37085874  0.85267857  0.71761008     0.02400
C1625       C  0.40127785  0.87258617  0.70931377     0.27200
C1626       C  0.42054897  0.89534898  0.72961548    -0.25400
N1627       N  0.36838000  0.87959811  0.79551149    -0.82700
H1628       H  0.33698357  0.84134921  0.75222827     0.13000
C1629       C  0.34909900  0.82841629  0.69720711     0.02400
N1630       N  0.41260042  0.86924433  0.68067502    -0.81300
H1631       H  0.44394523  0.91049640  0.72341048     0.17800
C1632       C  0.34458765  0.83555145  0.66779471    -0.26200
C1633       C  0.32120767  0.81406363  0.64943890     0.35900
C1634       C  0.30156111  0.78479080  0.66105471    -0.20200
C1635       C  0.30726502  0.77740871  0.68994415    -0.25400
C1636       C  0.33091276  0.79870293  0.70793770     0.27200
H1637       H  0.35848704  0.85839167  0.65959181     0.13000
N1638       N  0.31700005  0.82233316  0.61956094    -0.82700
H1639       H  0.29304004  0.75487930  0.69878019     0.17900
N1640       N  0.33626058  0.79040163  0.73734466    -0.81300
H1641       H  0.29691608  0.82303091  0.61972356     0.33500
H1642       H  0.33430148  0.84407843  0.61410952     0.38000
H1643       H  0.32075045  0.76778276  0.74198671     0.33400
H1644       H  0.35766506  0.79249353  0.73693669     0.30100
H1645       H  0.43538783  0.88569166  0.67807222     0.33500
H1646       H  0.41165199  0.84842892  0.68081826     0.30100
H1647       H  0.36036701  0.85888068  0.80639615     0.38000
H1648       H  0.35007547  0.88300674  0.79225989     0.33500
C1649       C  0.20258891  0.69146945  0.66255555    -0.20300
C1650       C  0.17192998  0.67639923  0.65349229     0.36000
C1651       C  0.14983370  0.65375324  0.67194474    -0.26200
C1652       C  0.15774945  0.64590105  0.69936095     0.02400
C1653       C  0.18836248  0.66045346  0.70823397     0.27200
C1654       C  0.21041998  0.68294246  0.68970762    -0.25400
N1655       N  0.16289863  0.68457779  0.62615936    -0.82700
H1656       H  0.12631346  0.64254221  0.66506024     0.13000
C1657       C  0.13390674  0.62332199  0.71940439     0.02400
N1658       N  0.19683537  0.65274573  0.73636634    -0.81300
H1659       H  0.23387574  0.69413002  0.69677274     0.17800
C1660       C  0.13498725  0.59754927  0.72749239    -0.26200
C1661       C  0.11544939  0.57763610  0.74948479     0.35900
C1662       C  0.09390956  0.58328832  0.76363138    -0.20200
C1663       C  0.09182164  0.60834390  0.75412319    -0.25400
C1664       C  0.11179977  0.62857465  0.73241779     0.27200
H1665       H  0.15178130  0.59331984  0.71725738     0.13000
N1666       N  0.11808883  0.55205795  0.75755567    -0.82700
H1667       H  0.07533592  0.61292403  0.76445455     0.17900
N1668       N  0.11041898  0.65496428  0.72431896    -0.81300
H1669       H  0.11543854  0.53963224  0.73792976     0.33500
H1670       H  0.14000924  0.55986955  0.76561366     0.38000
H1671       H  0.09278587  0.65544407  0.73583421     0.33400
H1672       H  0.13049429  0.67379472  0.73157497     0.30100
H1673       H  0.22026408  0.66537635  0.73946708     0.33500
H1674       H  0.18710151  0.65876938  0.75383808     0.30100
H1675       H  0.15182578  0.66534405  0.61260460     0.38000
H1676       H  0.14734162  0.69136486  0.63173509     0.33500
C1677       C  0.72509486  0.21939603  0.14613099     0.79800
N1678       N  0.72440799  0.21958703  0.11541407    -0.78500
C1679       C  0.74715776  0.24255665  0.09966175     0.82300
N1680       N  0.77068909  0.26539659  0.11466650    -0.78400
C1681       C  0.77166652  0.26539086  0.14527028     0.82400
N1682       N  0.74887797  0.24233559  0.16071608    -0.80100
C1683       C  0.72356735  0.22098095  0.02008806     0.79800
N1684       N  0.74625939  0.24500676  0.00558192    -0.78500
C1685       C  0.76886048  0.26809281  0.02102222     0.82300
N1686       N  0.76909635  0.26690259  0.05159665    -0.78400
C1687       C  0.74657915  0.24307176  0.06658391     0.82400
N1688       N  0.72373522  0.22016655  0.05082116    -0.80100
C1689       C  0.74941236  0.48122618  0.14646005     0.79800
N1690       N  0.74912956  0.48015134  0.11576749    -0.78500
C1691       C  0.72766209  0.48250700  0.09992113     0.82300
N1692       N  0.70643117  0.48611516  0.11480181    -0.78400
C1693       C  0.70688445  0.48781501  0.14538776     0.82400
N1694       N  0.72820418  0.48514790  0.16091426    -0.80100
C1695       C  0.74730927  0.47545599  0.02099703     0.79800
N1696       N  0.74852238  0.47800258  0.05159976    -0.78500
C1697       C  0.72686393  0.48051346  0.06691377     0.82300
N1698       N  0.70398119  0.48060773  0.05157454    -0.78400
C1699       C  0.70259214  0.47835544  0.02101871     0.82400
N1700       N  0.72431960  0.47572157  0.00591362    -0.80100
C1701       C  0.97768913  0.23416570  0.14959593     0.79800
N1702       N  0.97655100  0.21038587  0.16430928    -0.78500
C1703       C  0.97795851  0.18821336  0.14889119     0.82300
N1704       N  0.98030901  0.19002176  0.11829243    -0.78400
C1705       C  0.98147044  0.21365365  0.10322746     0.82400
N1706       N  0.98038860  0.23581449  0.11896901    -0.80100
C1707       C  0.99015192  0.24017001  0.02365153     0.79800
N1708       N  0.98671801  0.23899704  0.05428376    -0.78500
C1709       C  0.98417425  0.21503884  0.07008574     0.82300
N1710       N  0.98464481  0.19217080  0.05514979    -0.78400
C1711       C  0.98777622  0.19300526  0.02469665     0.82400
N1712       N  0.99063728  0.21706413  0.00917330    -0.80100
O1713       O  0.52111899  0.41821463  0.36973606    -0.88600
C1714       C  0.57247968  0.06620345  0.28930863     1.11500
O1715       O  0.98547294  0.44607241  0.33545543    -1.36400
O1716       O  0.57871779  0.04845929  0.36839083    -0.90000
O1717       O  0.96050567  0.38549680  0.37022370    -0.90700
O1718       O  0.95398135  0.44617490  0.39886400    -0.79500
O1719       O  0.54985450  0.48454834  0.36405023    -1.01600
C1720       C  0.98727683  0.03058126  0.39257261     1.21500
O1721       O  0.95359612  0.47689210  0.33580298    -1.36500
Mn1722     Mn  0.98525877  0.47754765  0.30289876     1.82100
O1723       O  0.98733317  0.00717772  0.40043236    -0.78600
O1724       O  0.55252116  0.07238872  0.36723032    -0.88000
C1725       C  0.98564072  0.03191218  0.28179558     1.12600
C1726       C  0.57312234  0.06840257  0.37828449     1.07300
O1727       O  0.95448900  0.44623085  0.27187051    -0.79500
O1728       O  0.51832259  0.01128525  0.33525969    -1.33200
O1729       O  0.92672838  0.41805301  0.30708615    -0.98800
C1730       C  0.89713135  0.47471060  0.38053867     1.06000
Mn1731     Mn  0.51933274  0.05311981  0.33406904     1.48600
O1732       O  0.89218696  0.45035216  0.36815491    -0.88000
Mn1733     Mn  0.94534592  0.40318551  0.33585281     1.49600
O1734       O  0.52211424  0.41832224  0.30196888    -0.91800
C1735       C  0.54425134  0.48348507  0.39092042     1.21400
C1736       C  0.98560649  0.39091331  0.29066965     1.11300
Mn1737     Mn  0.98529229  0.47714517  0.36836917     1.81000
O1738       O  0.98604506  0.03593335  0.30894069    -0.97000
Mn1739     Mn  0.53393021  0.45082544  0.33567685     1.49300
C1740       C  0.98609509  0.39030174  0.37967111     1.07800
Mn1741     Mn  0.95250506  0.01709546  0.33769243     1.49900
C1742       C  0.89812222  0.47689964  0.29146461     1.10700
O1743       O  0.92567760  0.41772811  0.36391557    -1.02800
O1744       O  0.55170914  0.07066545  0.29935452    -0.92400
C1745       C  0.93015742  0.42305378  0.39089383     1.22000
O1746       O  0.98680739  0.03489543  0.36558853    -1.03200
O1747       O  0.57799705  0.04681384  0.30068044    -0.90600
O1748       O  0.91929815  0.00310227  0.30405735    -0.90200
O1749       O  0.96049551  0.38548881  0.30202139    -0.90200
Mn1750     Mn  0.56149080  0.01500226  0.33511727     1.47900
O1751       O  0.98505433  0.00842210  0.27296840    -0.78700
C1752       C  0.93106081  0.42276300  0.28006925     1.15100
O1753       O  0.51977737  0.48160570  0.39853513    -0.77400
O1754       O  0.52156633  0.48137949  0.27178961    -0.77000
Mn1755     Mn  0.91107063  0.43635877  0.33489034     1.51100
O1756       O  0.92016505  0.00206796  0.37208552    -0.89400
O1757       O  0.55108307  0.48463305  0.30708093    -0.96900
O1758       O  0.89401544  0.45156458  0.30036566    -0.91900
C1759       C  0.54611710  0.48381059  0.27997187     1.12800
C1760       C  0.98866701  0.05309519  0.41464809    -0.20300
C1761       C  0.98353142  0.07647724  0.40528252     0.36000
C1762       C  0.98696134  0.09864474  0.42579010    -0.26200
C1763       C  0.99587149  0.09861077  0.45564171     0.02400
C1764       C  0.50075058  0.07948974  0.46257362     0.27200
C1765       C  0.49715720  0.05702129  0.44198186    -0.25400
N1766       N  0.97491709  0.07806556  0.37484217    -0.82700
H1767       H  0.98274844  0.11626393  0.41819555     0.13000
C1768       C  0.99968926  0.12347190  0.47575221     0.02400
N1769       N  0.51153777  0.08011578  0.49269562    -0.81300
H1770       H  0.50266861  0.04015773  0.44903167     0.17800
C1771       C  0.98159741  0.11677818  0.50164491    -0.26200
C1772       C  0.97035748  0.13794347  0.01659773     0.35900
C1773       C  0.98901889  0.16846543  0.00846726    -0.20200
C1774       C  0.01757775  0.17675874  0.48354794    -0.25400
C1775       C  0.01857574  0.15384112  0.46715581     0.27200
H1776       H  0.95619882  0.09189062  0.00526198     0.13000
N1777       N  0.94934917  0.12972465  0.04115241    -0.82700
H1778       H  0.03154299  0.19997883  0.47641520     0.17900
N1779       N  0.03827865  0.16117434  0.44141181    -0.81300
H1780       H  0.92757767  0.11557947  0.03272108     0.33500
H1781       H  0.95414830  0.11744913  0.05678064     0.38000
H1782       H  0.05033665  0.18445129  0.43778722     0.33400
H1783       H  0.05425896  0.15485083  0.44653442     0.30100
H1784       H  0.51519955  0.06205325  0.49603150     0.33500
H1785       H  0.53261776  0.09976697  0.49476771     0.30100
H1786       H  0.99118857  0.09877066  0.36578195     0.38000
H1787       H  0.95424902  0.07760394  0.37539664     0.33500
C1788       C  0.99784020  0.26587582  0.50299981    -0.20300
C1789       C  0.01206789  0.27390409  0.47430921     0.36000
C1790       C  0.00989230  0.29550239  0.45665504    -0.26200
C1791       C  0.99480564  0.31023525  0.46724830     0.02400
C1792       C  0.98175136  0.30327002  0.49639492     0.27200
C1793       C  0.97756549  0.28092458  0.01514548    -0.25400
N1794       N  0.47330407  0.23216347  0.45936183    -0.82700
H1795       H  0.48168484  0.28188212  0.43148275     0.13000
C1796       C  0.99278437  0.33259887  0.44722958     0.02400
N1797       N  0.96709675  0.31878113  0.50818456    -0.81300
H1798       H  0.96499002  0.27440351  0.03619180     0.17800
C1799       C  0.96439525  0.32893771  0.43994447    -0.26200
C1800       C  0.96157392  0.34800073  0.41898174     0.35900
C1801       C  0.98761556  0.37111018  0.40437700    -0.20200
C1802       C  0.52488972  0.37645679  0.40858873    -0.25400
C1803       C  0.52641451  0.35662809  0.42951172     0.27200
H1804       H  0.94412815  0.31065860  0.45003317     0.13000
N1805       N  0.93214997  0.34354692  0.41263070    -0.82700
H1806       H  0.54413551  0.38981858  0.39401446     0.17900
N1807       N  0.55305020  0.35399533  0.43141530    -0.81300
H1808       H  0.91851259  0.32152378  0.40475043     0.33500
H1809       H  0.92285192  0.34569775  0.43291115     0.38000
H1810       H  0.56939071  0.36842735  0.41591114     0.33400
H1811       H  0.56238611  0.36131216  0.45288934     0.30100
H1812       H  0.95141658  0.31019426  0.02817086     0.33500
H1813       H  0.98356578  0.34152590  0.51041607     0.30100
H1814       H  0.46763788  0.23238879  0.43670087     0.38000
H1815       H  0.45300681  0.21832673  0.47078077     0.33500
C1816       C  0.98536537  0.05417521  0.26054390    -0.20300
C1817       C  0.99534610  0.08411201  0.26979010     0.36000
C1818       C  0.99312255  0.10415941  0.25001873    -0.26200
C1819       C  0.98041403  0.09501176  0.22120118     0.02400
C1820       C  0.97061918  0.06522488  0.21162995     0.27200
C1821       C  0.97360379  0.04523392  0.23125118    -0.25400
N1822       N  0.00777225  0.09441397  0.29931742    -0.82700
H1823       H  0.00121028  0.12710387  0.25739487     0.13000
C1824       C  0.97763654  0.11711597  0.20164641     0.02400
N1825       N  0.95701756  0.05519177  0.18237583    -0.81300
H1826       H  0.96565314  0.02227571  0.22406001     0.17800
C1827       C  0.51343526  0.15434917  0.20917517    -0.26200
C1828       C  0.51541228  0.17885686  0.19330735     0.35900
C1829       C  0.97699215  0.16254781  0.16570416    -0.20200
C1830       C  0.96315790  0.15515359  0.19436496    -0.25400
C1831       C  0.96303394  0.13249362  0.21223537     0.27200
H1832       H  0.52385824  0.15811918  0.23127959     0.13000
N1833       N  0.53179369  0.20841224  0.20623425    -0.82700
H1834       H  0.95226060  0.16709990  0.20294584     0.17900
N1835       N  0.94821870  0.12509343  0.24121414    -0.81300
H1836       H  0.52191147  0.20801942  0.22707569     0.33500
H1837       H  0.55400526  0.21342820  0.21019064     0.38000
H1838       H  0.93873194  0.13857518  0.24579960     0.33400
H1839       H  0.93026717  0.10287203  0.24008446     0.30100
H1840       H  0.54062265  0.08739873  0.18519495     0.33500
H1841       H  0.93687466  0.05578461  0.18227852     0.30100
H1842       H  0.99459351  0.10187517  0.31024496     0.38000
H1843       H  0.02962715  0.11287275  0.29686466     0.33500
C1844       C  0.97678418  0.25844982  0.16689715    -0.20300
C1845       C  0.48207175  0.26134018  0.19378407     0.36000
C1846       C  0.48284047  0.28431984  0.21148983    -0.26200
C1847       C  0.97813687  0.30587831  0.20056082     0.02400
C1848       C  0.99447668  0.31219623  0.17326106     0.27200
C1849       C  0.99341247  0.28835718  0.15651018    -0.25400
N1850       N  0.46372417  0.23064454  0.20327966    -0.82700
H1851       H  0.47013224  0.27852006  0.23246957     0.13000
C1852       C  0.98061889  0.33025437  0.22040327     0.02400
N1853       N  0.01237605  0.34279410  0.16297931    -0.81300
H1854       H  0.00629049  0.29325113  0.13571942     0.17800
C1855       C  0.52698588  0.35881859  0.23697050    -0.26200
C1856       C  0.52711634  0.37873927  0.25888044     0.35900
C1857       C  0.98498139  0.37161934  0.26517640    -0.20200
C1858       C  0.95752216  0.35337633  0.24984525    -0.25400
C1859       C  0.95512938  0.33276988  0.22752281     0.27200
H1860       H  0.54783289  0.35902030  0.23188646     0.13000
N1861       N  0.55498693  0.39923278  0.27353373    -0.82700
H1862       H  0.93767030  0.35480982  0.25557298     0.17900
N1863       N  0.92687176  0.31406138  0.21234956    -0.81300
H1864       H  0.56334000  0.38667297  0.28403007     0.33500
H1865       H  0.57048360  0.41256848  0.25687570     0.38000
H1866       H  0.91038512  0.31879394  0.22010360     0.33400
H1867       H  0.93013739  0.31981776  0.18943211     0.30100
H1868       H  0.02326470  0.34367092  0.14265117     0.33500
H1869       H  0.99759083  0.35076010  0.15835336     0.30100
H1870       H  0.47109522  0.22845043  0.22465694     0.38000
H1871       H  0.44139345  0.22596597  0.20532297     0.33500
C1872       C  0.87713721  0.47231672  0.40619909    -0.20300
C1873       C  0.87802695  0.49778963  0.41956162     0.36000
C1874       C  0.85675946  0.49383969  0.44183359    -0.26200
C1875       C  0.83468433  0.46495933  0.45127511     0.02400
C1876       C  0.83477419  0.43963837  0.43940839     0.27200
C1877       C  0.85587862  0.44344279  0.41710992    -0.25400
N1878       N  0.90002898  0.03116664  0.40480761    -0.82700
H1879       H  0.85855498  0.01949821  0.44672933     0.13000
C1880       C  0.81000090  0.46162290  0.47129323     0.02400
N1881       N  0.81329588  0.41001036  0.44985787    -0.81300
H1882       H  0.85514551  0.42348786  0.40800576     0.17800
C1883       C  0.78055857  0.44781686  0.45972685    -0.26200
C1884       C  0.75692291  0.44709275  0.47643033     0.35900
C1885       C  0.76270057  0.46047615  0.50543746    -0.20200
C1886       C  0.80019118  0.48515350  0.01686775    -0.25400
C1887       C  0.81579834  0.47389362  0.50064404     0.27200
H1888       H  0.78024604  0.94498976  0.43769354     0.13000
N1889       N  0.73111837  0.93921323  0.46413130    -0.82700
H1890       H  0.80484740  0.49604000  0.03877417     0.17900
N1891       N  0.85350062  0.49754260  0.01389059    -0.81300
H1892       H  0.72489914  0.91684954  0.45955422     0.33500
H1893       H  0.73181643  0.94967415  0.44363894     0.38000
H1894       H  0.85407436  0.50671766  0.03516482     0.33400
H1895       H  0.85140671  0.47053929  0.51493716     0.30100
H1896       H  0.80085352  0.39722796  0.43125488     0.33500
H1897       H  0.82528021  0.40016669  0.45856640     0.30100
H1898       H  0.91307601  0.04556086  0.42228546     0.38000
H1899       H  0.88699829  0.03962451  0.39555283     0.33500
C1900       C  0.56497506  0.48205528  0.41318360    -0.20300
C1901       C  0.59626849  0.49587324  0.40716186     0.36000
C1902       C  0.61490169  0.49106957  0.42665166    -0.26200
C1903       C  0.60291087  0.47225413  0.45190141     0.02400
C1904       C  0.57172989  0.45867804  0.45838474     0.27200
C1905       C  0.55306737  0.46406398  0.43912207    -0.25400
N1906       N  0.60707529  0.00829297  0.37362946    -0.82700
H1907       H  0.64088464  0.00330088  0.41557341     0.13000
C1908       C  0.62370392  0.46732638  0.47110179     0.02400
N1909       N  0.55908182  0.43884001  0.48388998    -0.81300
H1910       H  0.52896206  0.45300305  0.44352646     0.17800
C1911       C  0.63808644  0.99130772  0.49927837    -0.26200
C1912       C  0.64458512  0.96554722  0.01834096     0.35900
C1913       C  0.67724139  0.47784488  0.00421475    -0.20200
C1914       C  0.66290739  0.45418887  0.47639104    -0.25400
C1915       C  0.64049464  0.45495175  0.45882428     0.27200
H1916       H  0.62718528  0.00335366  0.50759054     0.13000
N1917       N  0.64915911  0.97661231  0.04887109    -0.82700
H1918       H  0.67585141  0.44485330  0.46661450     0.17900
N1919       N  0.63487977  0.44352668  0.42839291    -0.81300
H1920       H  0.63350771  0.98324553  0.05456634     0.33500
H1921       H  0.67051397  0.99604192  0.04984740     0.38000
H1922       H  0.64924855  0.43531454  0.42265306     0.33400
H1923       H  0.61280285  0.42515737  0.42765239     0.30100
H1924       H  0.53580421  0.43060816  0.48541104     0.33500
H1925       H  0.56917294  0.43407424  0.99012179     0.30100
H1926       H  0.62512588  0.03033791  0.37598391     0.38000
H1927       H  0.61513297  0.99573014  0.36252021     0.33500
C1928       C  0.87955182  0.47766190  0.26594826    -0.20300
C1929       C  0.88081230  0.50470894  0.25677669     0.36000
C1930       C  0.86114335  0.50389496  0.23437684    -0.26200
C1931       C  0.83993920  0.47667726  0.22097360     0.02400
C1932       C  0.83935486  0.44984849  0.22880563     0.27200
C1933       C  0.85936711  0.45063831  0.25101452    -0.25400
N1934       N  0.90129806  0.53300729  0.27062779    -0.82700
H1935       H  0.86159868  0.52455292  0.22823090     0.13000
C1936       C  0.81626788  0.47636738  0.20167925     0.02400
N1937       N  0.81783337  0.42183420  0.21488375    -0.81300
H1938       H  0.85845883  0.42983168  0.25727068     0.17800
C1939       C  0.81566200  0.47095277  0.17058014    -0.26200
C1940       C  0.79374711  0.47160254  0.15183529     0.35900
C1941       C  0.77245352  0.47851038  0.16463239    -0.20200
C1942       C  0.77305012  0.48322542  0.19606225    -0.25400
C1943       C  0.79444511  0.48193444  0.21463823     0.27200
H1944       H  0.82896364  0.95861887  0.16315589     0.13000
N1945       N  0.78627273  0.95024308  0.12282767    -0.82700
H1946       H  0.75681613  0.48812086  0.20646272     0.17900
N1947       N  0.79422923  0.48635885  0.24674627    -0.81300
H1948       H  0.80453058  0.94725702  0.11752513     0.33500
H1949       H  0.76684213  0.92895339  0.12139329     0.38000
H1950       H  0.77682510  0.49044549  0.25274083     0.33400
H1951       H  0.78938709  0.46620719  0.25730601     0.30100
H1952       H  0.82049841  0.40419453  0.22300385     0.33500
H1953       H  0.79619788  0.41705271  0.22142411     0.30100
H1954       H  0.91508768  0.54774175  0.25372760     0.38000
H1955       H  0.88865064  0.54185102  0.28007674     0.33500
C1956       C  0.56846464  0.48478425  0.25786286    -0.20300
C1957       C  0.56888965  0.49277239  0.22717033     0.36000
C1958       C  0.59166571  0.49457809  0.20789331    -0.26200
C1959       C  0.61329424  0.48757547  0.21829765     0.02400
C1960       C  0.61227199  0.47866463  0.24862594     0.27200
C1961       C  0.59026076  0.47787552  0.26813089    -0.25400
N1962       N  0.54678981  0.49970646  0.21575900    -0.82700
H1963       H  0.59261728  0.50154112  0.18461316     0.13000
C1964       C  0.63719966  0.48989481  0.19750048     0.02400
N1965       N  0.63342467  0.47012865  0.25941356    -0.81300
H1966       H  0.58984003  0.47127191  0.29146524     0.17800
C1967       C  0.66759074  0.50759019  0.20615611    -0.26200
C1968       C  0.69086566  0.50814221  0.18886747     0.35900
C1969       C  0.68360732  0.49100970  0.16202296    -0.20200
C1970       C  0.65343005  0.47492621  0.15224530    -0.25400
C1971       C  0.63002492  0.47379185  0.16997689     0.27200
H1972       H  0.66431371  0.00479001  0.22556005     0.13000
N1973       N  0.71120998  0.00610682  0.19760741    -0.82700
H1974       H  0.64792122  0.46186832  0.13157414     0.17900
N1975       N  0.59900955  0.45549735  0.16072672    -0.81300
H1976       H  0.71366986  0.01920273  0.21667277     0.33500
H1977       H  0.72201745  0.02110989  0.17976181     0.38000
H1978       H  0.59765804  0.44520858  0.13991920     0.33400
H1979       H  0.58815675  0.43814876  0.17654402     0.30100
H1980       H  0.62963784  0.46418059  0.28226991     0.33500
H1981       H  0.62937016  0.45079783  0.24760543     0.30100
H1982       H  0.52600856  0.47957486  0.21516901     0.38000
H1983       H  0.55168718  0.50717169  0.19337457     0.33500
C1984       C  0.90731342  0.40281424  0.41303161    -0.20300
C1985       C  0.90405954  0.41295608  0.44178252     0.36000
C1986       C  0.88095373  0.39277310  0.46122723    -0.26200
C1987       C  0.86119153  0.36292064  0.45241800     0.02400
C1988       C  0.86471888  0.35271083  0.42397045     0.27200
C1989       C  0.88748395  0.37284527  0.40445222    -0.25400
N1990       N  0.92364238  0.44371351  0.45088542    -0.82700
H1991       H  0.87792844  0.40043082  0.48310119     0.13000
C1992       C  0.83652010  0.34233919  0.47284607     0.02400
N1993       N  0.84525637  0.32182646  0.41516464    -0.81300
H1994       H  0.89000209  0.36494485  0.38250312     0.17800
C1995       C  0.80657419  0.32946315  0.46280443    -0.26200
C1996       C  0.78262266  0.30705044  0.47970236     0.35900
C1997       C  0.79317014  0.29396403  0.00448426    -0.20200
C1998       C  0.82264600  0.30885804  0.01636760    -0.25400
C1999       C  0.84268473  0.33398424  0.50109702     0.27200
H2000       H  0.80202854  0.33646270  0.44128591     0.13000
N2001       N  0.75207965  0.29378580  0.46877665    -0.82700
H2002       H  0.82697255  0.30194106  0.03802833     0.17900
N2003       N  0.87335175  0.34713297  0.51159686    -0.81300
H2004       H  0.75151028  0.30314131  0.44797878     0.33500
H2005       H  0.74002321  0.29932875  0.48407152     0.38000
H2006       H  0.87747334  0.33652639  0.03264964     0.33400
H2007       H  0.88488208  0.34054640  0.49672003     0.30100
H2008       H  0.85074461  0.31800155  0.39345269     0.33500
H2009       H  0.84940041  0.30838606  0.42986518     0.30100
H2010       H  0.91948590  0.45741021  0.43659568     0.38000
H2011       H  0.91827227  0.44728295  0.47275227     0.33500
C2012       C  0.69775989  0.19749317  0.50475388    -0.20300
C2013       C  0.68050833  0.16772694  0.51612987     0.36000
C2014       C  0.65850126  0.14501977  0.49755483    -0.26200
C2015       C  0.65381329  0.15139670  0.46793170     0.02400
C2016       C  0.67125752  0.18081085  0.45644311     0.27200
C2017       C  0.69276666  0.20351947  0.47499243    -0.25400
N2018       N  0.68163786  0.15984050  0.04406335    -0.82700
H2019       H  0.64506090  0.12223185  0.50607208     0.13000
C2020       C  0.63081671  0.12735793  0.44857395     0.02400
N2021       N  0.66714960  0.18741433  0.42580089    -0.81300
H2022       H  0.70574426  0.22613099  0.46595951     0.17800
C2023       C  0.60700200  0.13063757  0.43758631    -0.26200
C2024       C  0.58766253  0.11151436  0.41511284     0.35900
C2025       C  0.59169498  0.08801613  0.40365317    -0.20200
C2026       C  0.61447670  0.08364752  0.41628390    -0.25400
C2027       C  0.63429315  0.10329023  0.43839284     0.27200
H2028       H  0.60421026  0.14905110  0.44562445     0.13000
N2029       N  0.56451559  0.11668782  0.40361363    -0.82700
H2030       H  0.61756453  0.06546084  0.40826135     0.17900
N2031       N  0.65849167  0.09950670  0.44978219    -0.81300
H2032       H  0.57478218  0.13869450  0.39523607     0.33500
H2033       H  0.55053702  0.11498780  0.42162877     0.38000
H2034       H  0.65776612  0.08056347  0.44010577     0.33400
H2035       H  0.67777458  0.11516589  0.94207897     0.30100
H2036       H  0.68160281  0.21020905  0.42088525     0.33500
H2037       H  0.67347112  0.17528164  0.41150257     0.30100
H2038       H  0.70228024  0.16039934  0.04611849     0.38000
H2039       H  0.67048786  0.13780274  0.55107860     0.33500
C2040       C  0.90846335  0.40175845  0.25815757    -0.20300
C2041       C  0.87802186  0.38266514  0.26690109     0.36000
C2042       C  0.85735336  0.36214569  0.24622045    -0.26200
C2043       C  0.86643089  0.35936245  0.21709824     0.02400
C2044       C  0.89660190  0.37882512  0.20784427     0.27200
C2045       C  0.91728868  0.40018164  0.22841855    -0.25400
N2046       N  0.86783743  0.38394650  0.29679191    -0.82700
H2047       H  0.83404039  0.34774464  0.25321883     0.13000
C2048       C  0.84400294  0.33502645  0.19739950     0.02400
N2049       N  0.90624575  0.37632912  0.17797447    -0.81300
H2050       H  0.94059020  0.41483687  0.22157850     0.17800
C2051       C  0.83676660  0.34204561  0.16912930    -0.26200
C2052       C  0.81365275  0.31964197  0.15134579     0.35900
C2053       C  0.79740532  0.28969859  0.16205255    -0.20200
C2054       C  0.80517201  0.28270785  0.19006859    -0.25400
C2055       C  0.82837191  0.30494154  0.20773785     0.27200
H2056       H  0.84844579  0.36516685  0.16125167     0.13000
N2057       N  0.80601179  0.32767732  0.12308615    -0.82700
H2058       H  0.79307928  0.25970999  0.19827715     0.17900
N2059       N  0.83592679  0.29717183  0.23635711    -0.81300
H2060       H  0.80013119  0.34413103  0.12723350     0.33500
H2061       H  0.82530687  0.33721493  0.10936850     0.38000
H2062       H  0.82209677  0.27417202  0.24079484     0.33400
H2063       H  0.85806673  0.30124623  0.23479729     0.30100
H2064       H  0.92909358  0.39231843  0.17477822     0.33500
H2065       H  0.90444324  0.35517793  0.17628199     0.30100
H2066       H  0.85916563  0.36269840  0.30671175     0.38000
H2067       H  0.85019402  0.38857933  0.29502694     0.33500
C2068       C  0.70055604  0.19468924  0.16413378    -0.20300
C2069       C  0.67196200  0.17399195  0.15178474     0.36000
C2070       C  0.64952125  0.15176667  0.17034913    -0.26200
C2071       C  0.65510187  0.14975050  0.20098592     0.02400
C2072       C  0.68345732  0.17021766  0.21346903     0.27200
C2073       C  0.70586886  0.19231981  0.19495856    -0.25400
N2074       N  0.66532757  0.17557222  0.12063176    -0.82700
H2075       H  0.62766018  0.13595862  0.16080081     0.13000
C2076       C  0.63142493  0.12603322  0.22012357     0.02400
N2077       N  0.68927495  0.16850488  0.24500117    -0.81300
H2078       H  0.72762171  0.20782066  0.20486807     0.17800
C2079       C  0.63626773  0.10343794  0.23153335    -0.26200
C2080       C  0.61670028  0.08286812  0.25304178     0.35900
C2081       C  0.59169722  0.08502287  0.26375843    -0.20200
C2082       C  0.58593107  0.10666429  0.25073379    -0.25400
C2083       C  0.60564092  0.12727155  0.22908979     0.27200
H2084       H  0.65594710  0.10231118  0.22429561     0.13000
N2085       N  0.62287021  0.06033281  0.26424520    -0.82700
H2086       H  0.56654327  0.10821948  0.25809771     0.17900
N2087       N  0.60009268  0.14996474  0.21685059    -0.81300
H2088       H  0.62286024  0.04741857  0.24593841     0.33500
H2089       H  0.64453913  0.07117866  0.27370795     0.38000
H2090       H  0.57996648  0.14759420  0.22552840     0.33400
H2091       H  0.61754844  0.17093838  0.22413755     0.30100
H2092       H  0.71134675  0.18505619  0.25062400     0.33500
H2093       H  0.67479951  0.17329186  0.25746863     0.30100
H2094       H  0.65935284  0.15491259  0.11049069     0.38000
H2095       H  0.64659692  0.17859035  0.11962412     0.33500
C2096       C  0.72325895  0.21830956  0.64779282     0.79800
N2097       N  0.72236798  0.21998579  0.61723431    -0.78500
C2098       C  0.74510980  0.24345833  0.60209759     0.82300
N2099       N  0.76897569  0.26532757  0.61754883    -0.78400
C2100       C  0.77027702  0.26386251  0.64806159     0.82400
N2101       N  0.74739776  0.24027312  0.66295884    -0.80100
C2102       C  0.72149274  0.22277073  0.52270499     0.79800
N2103       N  0.74304833  0.24767576  0.50822738    -0.78500
C2104       C  0.76503072  0.27124467  0.52380620     0.82300
N2105       N  0.76575228  0.26968404  0.55436138    -0.78400
C2106       C  0.74417784  0.24502529  0.56917672     0.82400
N2107       N  0.72205479  0.22167659  0.55333360    -0.80100
C2108       C  0.74555353  0.47816983  0.64828609     0.79800
N2109       N  0.74430536  0.47419994  0.61777694    -0.78500
C2110       C  0.72122629  0.47325663  0.60162634     0.82300
N2111       N  0.69932162  0.47609089  0.61607343    -0.78400
C2112       C  0.70050714  0.48035350  0.64639269     0.82400
N2113       N  0.72366050  0.48136404  0.66231821    -0.80100
C2114       C  0.73893581  0.46269486  0.52270842     0.79800
N2115       N  0.74093952  0.46632271  0.55326937    -0.78500
C2116       C  0.71946653  0.46912113  0.56870199     0.82300
N2117       N  0.69615832  0.46852018  0.55348127    -0.78400
C2118       C  0.69405468  0.46535511  0.52301566     0.82400
N2119       N  0.71557798  0.46246484  0.50787206    -0.80100
C2120       C  0.97957887  0.23447879  0.64717466     0.79800
N2121       N  0.97764073  0.21034811  0.66199710    -0.78500
C2122       C  0.98034757  0.18879151  0.64680607     0.82300
N2123       N  0.98473171  0.19143514  0.61649597    -0.78400
C2124       C  0.98665202  0.21529686  0.60133817     0.82400
N2125       N  0.98429735  0.23694829  0.61673771    -0.80100
C2126       C  0.99707046  0.24113435  0.52141528     0.79800
N2127       N  0.99296602  0.24022170  0.55195002    -0.78500
C2128       C  0.99125369  0.21707698  0.56845709     0.82300
N2129       N  0.99330415  0.19472071  0.55436971    -0.78400
C2130       C  0.99708218  0.19506578  0.52407075     0.82400
N2131       N  0.99904658  0.21839692  0.50771830    -0.80100
O2132       O  0.51639010  0.41399872  0.86950696    -0.88600
C2133       C  0.57040921  0.06295117  0.78834038     1.11500
O2134       O  0.98751183  0.44672540  0.83429190    -1.36400
O2135       O  0.57668512  0.04475196  0.86841953    -0.90000
O2136       O  0.96270658  0.38647121  0.86881203    -0.90700
O2137       O  0.95714620  0.44793204  0.89828726    -0.79500
O2138       O  0.54627029  0.48028232  0.86355195    -1.01600
C2139       C  0.98746128  0.03384122  0.89165265     1.21500
O2140       O  0.95600584  0.47802694  0.83472552    -1.36500
Mn2141     Mn  0.98693423  0.47775852  0.80154296     1.82100
O2142       O  0.98768977  0.01062734  0.89987528    -0.78600
O2143       O  0.55201791  0.07012912  0.86526175    -0.88000
C2144       C  0.98682706  0.03334353  0.78079516     1.12600
C2145       C  0.57216408  0.06585693  0.87692710     1.07300
O2146       O  0.95526867  0.44600275  0.77104846    -0.79500
O2147       O  0.51633405  0.00848313  0.83444564    -1.33200
O2148       O  0.92820618  0.41897822  0.80709275    -0.98800
C2149       C  0.90163240  0.47766090  0.88103486     1.06000
Mn2150     Mn  0.51790804  0.05057108  0.83325907     1.48600
O2151       O  0.89619952  0.45269582  0.86970068    -0.88000
Mn2152     Mn  0.94729527  0.40410761  0.83502646     1.49600
O2153       O  0.51511431  0.41329842  0.80174588    -0.91800
C2154       C  0.54221050  0.48016611  0.89069248     1.21400
C2155       C  0.98659718  0.39107317  0.78907999     1.11300
Mn2156     Mn  0.98796836  0.47843803  0.86695690     1.81000
O2157       O  0.98697360  0.03769257  0.80787859    -0.97000
Mn2158     Mn  0.52891918  0.44631757  0.83542339     1.49300
C2159       C  0.98809581  0.39100273  0.87841394     1.07800
Mn2160     Mn  0.95331802  0.01950011  0.83671766     1.49900
C2161       C  0.89886692  0.47749172  0.79204909     1.10700
O2162       O  0.92890825  0.41945103  0.86353004    -1.02800
O2163       O  0.54929888  0.06720865  0.79770094    -0.92400
C2164       C  0.93362050  0.42445487  0.89047939     1.22000
O2165       O  0.98755704  0.03817140  0.86459276    -1.03200
O2166       O  0.57638115  0.04426112  0.80066219    -0.90600
O2167       O  0.92024694  0.00504920  0.80324330    -0.90200
O2168       O  0.96162662  0.38596915  0.80062260    -0.90200
Mn2169     Mn  0.55935630  0.01176956  0.83447920     1.47900
O2170       O  0.98670093  0.00994000  0.77246172    -0.78700
C2171       C  0.93194750  0.42277705  0.77999389     1.15100
O2172       O  0.51825524  0.47878201  0.89952235    -0.77400
O2173       O  0.51596358  0.47792794  0.77241885    -0.77000
Mn2174     Mn  0.91334502  0.43777053  0.83538972     1.51100
O2175       O  0.92043466  0.00470740  0.87115756    -0.89400
O2176       O  0.54578587  0.47982951  0.80657105    -0.96900
O2177       O  0.89452906  0.45229996  0.80181947    -0.91900
C2178       C  0.53999851  0.47874925  0.77964680     1.12800
C2179       C  0.98671593  0.05543525  0.91355528    -0.20300
C2180       C  0.97940694  0.07729819  0.90402002     0.36000
C2181       C  0.98033238  0.09836371  0.92463186    -0.26200
C2182       C  0.98879340  0.09862202  0.95471267     0.02400
C2183       C  0.50730888  0.08058691  0.96166012     0.27200
C2184       C  0.50166018  0.05704901  0.94138124    -0.25400
N2185       N  0.97107539  0.07840842  0.87334648    -0.82700
H2186       H  0.97471503  0.11499221  0.91694219     0.13000
C2187       C  0.99095106  0.12276853  0.97476697     0.02400
N2188       N  0.52019064  0.08205336  0.99089325    -0.81300
H2189       H  0.50706884  0.04002045  0.94807260     0.17800
C2190       C  0.97142889  0.11534298  0.99964952    -0.26200
C2191       C  0.98110048  0.13974930  0.51856852     0.35900
C2192       C  0.99872927  0.17011122  0.50890503    -0.20200
C2193       C  0.00904143  0.17583569  0.98401473    -0.25400
C2194       C  0.01047107  0.15333016  0.96732361     0.27200
H2195       H  0.96693938  0.09343147  0.50801815     0.13000
N2196       N  0.96143922  0.13204601  0.54439433    -0.82700
H2197       H  0.02375244  0.19927877  0.97800171     0.17900
N2198       N  0.03146059  0.16128355  0.94261760    -0.81300
H2199       H  0.94793728  0.10865744  0.54648751     0.33500
H2200       H  0.97511366  0.13924635  0.56364336     0.38000
H2201       H  0.04402922  0.18467276  0.93991411     0.33400
H2202       H  0.04686522  0.15437242  0.94833906     0.30100
H2203       H  0.52368498  0.06384579  0.99392424     0.33500
H2204       H  0.54154821  0.10152014  0.99140900     0.30100
H2205       H  0.98633114  0.09970814  0.86468256     0.38000
H2206       H  0.94953765  0.07603358  0.87332616     0.33500
C2207       C  0.99287775  0.26597682  0.00574998    -0.20300
C2208       C  0.00945244  0.27484060  0.97835172     0.36000
C2209       C  0.00880296  0.29692350  0.96022846    -0.26200
C2210       C  0.99296590  0.31138689  0.96917627     0.02400
C2211       C  0.97752873  0.30361218  0.99720503     0.27200
C2212       C  0.98323939  0.28109220  0.51384334    -0.25400
N2213       N  0.53819517  0.26565273  0.96336231    -0.82700
H2214       H  0.52983558  0.30626288  0.93533217     0.13000
C2215       C  0.99200670  0.33365180  0.94818818     0.02400
N2216       N  0.96173350  0.31861623  0.00722448    -0.81300
H2217       H  0.97250323  0.27537025  0.53587389     0.17800
C2218       C  0.96403119  0.32989795  0.93922009    -0.26200
C2219       C  0.96216975  0.34875631  0.91738363     0.35900
C2220       C  0.98883164  0.37184662  0.90354861    -0.20200
C2221       C  0.52421661  0.37999233  0.91339870    -0.25400
C2222       C  0.52831928  0.36199534  0.93457605     0.27200
H2223       H  0.94330770  0.31166908  0.94865999     0.13000
N2224       N  0.93300211  0.34406570  0.90941582    -0.82700
H2225       H  0.54396468  0.39783484  0.90217868     0.17900
N2226       N  0.55814489  0.36736121  0.94109518    -0.81300
H2227       H  0.91985706  0.32202681  0.90138944     0.33500
H2228       H  0.92281316  0.34604835  0.92912717     0.38000
H2229       H  0.57413668  0.38434121  0.92722102     0.33400
H2230       H  0.56324588  0.37506260  0.96340089     0.30100
H2231       H  0.95858635  0.31100564  0.52987126     0.33500
H2232       H  0.97782098  0.34133406  0.01052898     0.30100
H2233       H  0.56040823  0.28243284  0.95849361     0.38000
H2234       H  0.52780286  0.25504452  0.94308119     0.33500
C2235       C  0.98670030  0.05527292  0.75898228    -0.20300
C2236       C  0.99270001  0.08404174  0.76860223     0.36000
C2237       C  0.99048261  0.10351948  0.74812028    -0.26200
C2238       C  0.98189847  0.09503099  0.71805221     0.02400
C2239       C  0.97690618  0.06678380  0.70787596     0.27200
C2240       C  0.97956141  0.04725844  0.72843306    -0.25400
N2241       N  0.00104324  0.09376376  0.79922695    -0.82700
H2242       H  0.99530531  0.12551657  0.75592568     0.13000
C2243       C  0.97859194  0.11643553  0.69797713     0.02400
N2244       N  0.96850562  0.05775997  0.67699954    -0.81300
H2245       H  0.97512498  0.02536434  0.72076138     0.17800
C2246       C  0.49672898  0.12660101  0.67119774    -0.26200
C2247       C  0.49850812  0.15051267  0.65396308     0.35900
C2248       C  0.97905440  0.16297830  0.66329820    -0.20200
C2249       C  0.96165402  0.15254294  0.68979564    -0.25400
C2250       C  0.96082736  0.12911532  0.70692498     0.27200
H2251       H  0.51120131  0.11749684  0.66563190     0.13000
N2252       N  0.51899791  0.16231290  0.62874254    -0.82700
H2253       H  0.94849614  0.16261309  0.69712312     0.17900
N2254       N  0.94214060  0.11822125  0.73351201    -0.81300
H2255       H  0.53572522  0.18430743  0.63419767     0.33500
H2256       H  0.53005647  0.15007371  0.62545731     0.38000
H2257       H  0.93085904  0.13018211  0.73723735     0.33400
H2258       H  0.92544859  0.09589051  0.72937128     0.30100
H2259       H  0.46116212  0.03423073  0.67174884     0.33500
H2260       H  0.94734937  0.05574257  0.67347959     0.30100
H2261       H  0.98522393  0.09892455  0.80810639     0.38000
H2262       H  0.02218723  0.11350137  0.79906747     0.33500
C2263       C  0.97798529  0.25855856  0.66430378    -0.20300
C2264       C  0.46549219  0.25325000  0.69304270     0.36000
C2265       C  0.46690284  0.27640391  0.71098778    -0.26200
C2266       C  0.97900465  0.30577668  0.69840144     0.02400
C2267       C  0.99602694  0.31234325  0.67146868     0.27200
C2268       C  0.99521574  0.28865447  0.65460439    -0.25400
N2269       N  0.44573843  0.22251887  0.70169702    -0.82700
H2270       H  0.45358461  0.27066198  0.73156593     0.13000
C2271       C  0.98120229  0.33002599  0.71853293     0.02400
N2272       N  0.01429031  0.34303528  0.66158156    -0.81300
H2273       H  0.00876879  0.29382103  0.63425346     0.17800
C2274       C  0.51486411  0.35058433  0.73724995    -0.26200
C2275       C  0.51661933  0.37119015  0.75919112     0.35900
C2276       C  0.98568710  0.37163043  0.76341760    -0.20200
C2277       C  0.95773225  0.35184728  0.74961194    -0.25400
C2278       C  0.95527930  0.33119221  0.72725153     0.27200
H2279       H  0.53505191  0.34974906  0.73153313     0.13000
N2280       N  0.54516679  0.39084992  0.77314698    -0.82700
H2281       H  0.93753344  0.35210158  0.75656377     0.17900
N2282       N  0.92651990  0.31110281  0.71361001    -0.81300
H2283       H  0.55287944  0.37760475  0.78333501     0.33500
H2284       H  0.56050403  0.40355439  0.75610999     0.38000
H2285       H  0.90977237  0.31498851  0.72231758     0.33400
H2286       H  0.92830031  0.31624428  0.69056692     0.30100
H2287       H  0.02560082  0.34407789  0.64149705     0.33500
H2288       H  0.99970546  0.35116509  0.65662365     0.30100
H2289       H  0.45202899  0.21939364  0.72326641     0.38000
H2290       H  0.42370327  0.21881837  0.70300803     0.33500
C2291       C  0.88312256  0.47675378  0.90751782    -0.20300
C2292       C  0.88556965  0.50312054  0.92041152     0.36000
C2293       C  0.86513317  0.50068800  0.94292581    -0.26200
C2294       C  0.84239284  0.47247589  0.95314620     0.02400
C2295       C  0.84129339  0.44617403  0.94229353     0.27200
C2296       C  0.86161621  0.44854056  0.91960219    -0.25400
N2297       N  0.89467274  0.03147826  0.90104354    -0.82700
H2298       H  0.85211752  0.01765032  0.94260298     0.13000
C2299       C  0.81788597  0.47086553  0.97229311     0.02400
N2300       N  0.81907469  0.41718412  0.95389734    -0.81300
H2301       H  0.86004570  0.42808431  0.91086851     0.17800
C2302       C  0.78868141  0.45766614  0.96016535    -0.26200
C2303       C  0.76529258  0.45850363  0.97580245     0.35900
C2304       C  0.77106391  0.47281250  0.00428654    -0.20200
C2305       C  0.79205426  0.47311451  0.51751710    -0.25400
C2306       C  0.82370503  0.48439376  0.00107063     0.27200
H2307       H  0.77688761  0.93875532  0.93576832     0.13000
N2308       N  0.72605056  0.92724736  0.96311618    -0.82700
H2309       H  0.79675589  0.48325583  0.53979069     0.17900
N2310       N  0.84584596  0.48746113  0.51291493    -0.81300
H2311       H  0.72241293  0.90568327  0.95859813     0.33500
H2312       H  0.72498211  0.93682245  0.94264228     0.38000
H2313       H  0.84638750  0.49556718  0.53473803     0.33400
H2314       H  0.85819645  0.48016611  0.01731093     0.30100
H2315       H  0.82120913  0.40004876  0.94348237     0.33500
H2316       H  0.82372211  0.41668386  0.97682836     0.30100
H2317       H  0.90679124  0.04689580  0.91820200     0.38000
H2318       H  0.88030695  0.03796430  0.89107441     0.33500
C2319       C  0.56500843  0.48119676  0.91197145    -0.20300
C2320       C  0.59537966  0.49293297  0.90279924     0.36000
C2321       C  0.61606037  0.49170091  0.92243012    -0.26200
C2322       C  0.60713854  0.47842258  0.95101671     0.02400
C2323       C  0.57700658  0.46722299  0.96072109     0.27200
C2324       C  0.55625470  0.46900852  0.94114884    -0.25400
N2325       N  0.60445649  0.00163793  0.87655900    -0.82700
H2326       H  0.63355044  0.98864888  0.91764174     0.13000
C2327       C  0.62991883  0.47639395  0.97000144     0.02400
N2328       N  0.56748691  0.45353884  0.99002167    -0.81300
H2329       H  0.53296490  0.45987782  0.94826945     0.17800
C2330       C  0.62279050  0.96692798  0.00006146    -0.26200
C2331       C  0.65998256  0.98975539  0.51710272     0.35900
C2332       C  0.66890761  0.46543947  0.50614254    -0.20200
C2333       C  0.66925544  0.46346523  0.97595452    -0.25400
C2334       C  0.64586591  0.46262395  0.95876113     0.27200
H2335       H  0.60985954  0.97659361  0.00914435     0.13000
N2336       N  0.66776297  0.00405681  0.54626537    -0.82700
H2337       H  0.68129801  0.45274672  0.96715286     0.17900
N2338       N  0.63840488  0.44810330  0.92970863    -0.81300
H2339       H  0.65447892  0.01368237  0.55134284     0.33500
H2340       H  0.69014228  0.02181432  0.54507985     0.38000
H2341       H  0.65207091  0.43885866  0.92480776     0.33400
H2342       H  0.61621841  0.43016848  0.93094191     0.30100
H2343       H  0.54468773  0.44657100  0.99370263     0.33500
H2344       H  0.56169611  0.42019149  0.47996627     0.30100
H2345       H  0.62281330  0.02268970  0.88228938     0.38000
H2346       H  0.61266032  0.99012718  0.86376523     0.33500
C2347       C  0.87845766  0.47766632  0.76799076    -0.20300
C2348       C  0.88380458  0.50465594  0.75385291     0.36000
C2349       C  0.86309070  0.50404174  0.73275142    -0.26200
C2350       C  0.83651534  0.47718205  0.72569060     0.02400
C2351       C  0.83109584  0.45005323  0.73928464     0.27200
C2352       C  0.85226605  0.45051210  0.75993965    -0.25400
N2353       N  0.91003704  0.53296279  0.76094237    -0.82700
H2354       H  0.86756995  0.52492390  0.72216849     0.13000
C2355       C  0.81398066  0.47820179  0.70520746     0.02400
N2356       N  0.80372034  0.42230040  0.73273396    -0.81300
H2357       H  0.84768011  0.42961896  0.77051922     0.17800
C2358       C  0.80462778  0.46047292  0.67891255    -0.26200
C2359       C  0.78260367  0.46025057  0.65965424     0.35900
C2360       C  0.77005358  0.47858590  0.66663494    -0.20200
C2361       C  0.77988148  0.49667885  0.69268596    -0.25400
C2362       C  0.80154361  0.49659612  0.71207325     0.27200
H2363       H  0.82676761  0.95949085  0.66608589     0.13000
N2364       N  0.78461839  0.95285469  0.62594818    -0.82700
H2365       H  0.77036598  0.51079245  0.69814067     0.17900
N2366       N  0.81058868  0.51474207  0.73902132    -0.81300
H2367       H  0.80087044  0.94674392  0.62128103     0.33500
H2368       H  0.76368326  0.93287510  0.62620353     0.38000
H2369       H  0.79950181  0.52712041  0.74066773     0.33400
H2370       H  0.80354629  0.50014224  0.75756201     0.30100
H2371       H  0.80317344  0.40439526  0.74451764     0.33500
H2372       H  0.78558143  0.42432350  0.74077979     0.30100
H2373       H  0.92164343  0.54233454  0.74080703     0.38000
H2374       H  0.90281311  0.54727126  0.76954432     0.33500
C2375       C  0.56053454  0.47711690  0.75679227    -0.20300
C2376       C  0.55945764  0.48283669  0.72561191     0.36000
C2377       C  0.58111862  0.48286058  0.70579501    -0.26200
C2378       C  0.60309552  0.47637975  0.71630706     0.02400
C2379       C  0.60282191  0.46867961  0.74691306     0.27200
C2380       C  0.58198996  0.46963302  0.76683537    -0.25400
N2381       N  0.53709124  0.48940749  0.71424239    -0.82700
H2382       H  0.58124233  0.48850029  0.68218088     0.13000
C2383       C  0.62757572  0.47935053  0.69590431     0.02400
N2384       N  0.62386946  0.45998211  0.75763375    -0.81300
H2385       H  0.58245701  0.46427048  0.79044011     0.17800
C2386       C  0.65769124  0.49904963  0.70437484    -0.26200
C2387       C  0.68190300  0.50056910  0.68794382     0.35900
C2388       C  0.67590236  0.48211672  0.66224262    -0.20200
C2389       C  0.64582184  0.46384469  0.65255147    -0.25400
C2390       C  0.62150898  0.46200080  0.66934536     0.27200
H2391       H  0.66369646  0.01095321  0.72563891     0.13000
N2392       N  0.71293276  0.01581798  0.69905267    -0.82700
H2393       H  0.64118662  0.44985652  0.63265931     0.17900
N2394       N  0.59080447  0.44190754  0.66012658    -0.81300
H2395       H  0.71397885  0.02777177  0.71860166     0.33500
H2396       H  0.72435472  0.03183221  0.68214062     0.38000
H2397       H  0.59029041  0.43085692  0.64007163     0.33400
H2398       H  0.58055456  0.42526193  0.67672520     0.30100
H2399       H  0.62072898  0.45497334  0.78072327     0.33500
H2400       H  0.61900788  0.44005390  0.74653729     0.30100
H2401       H  0.51607651  0.46961042  0.71579206     0.38000
H2402       H  0.54063170  0.49476857  0.69124218     0.33500
C2403       C  0.91142628  0.40324559  0.91251898    -0.20300
C2404       C  0.90901274  0.41176580  0.94233884     0.36000
C2405       C  0.88626147  0.39055824  0.96146592    -0.26200
C2406       C  0.86624252  0.36117686  0.95138373     0.02400
C2407       C  0.86924303  0.35253251  0.92192010     0.27200
C2408       C  0.89138012  0.37376768  0.90269681    -0.25400
N2409       N  0.92900836  0.44192195  0.95286560    -0.82700
H2410       H  0.88364755  0.39711867  0.98405922     0.13000
C2411       C  0.84136241  0.33968651  0.97116776     0.02400
N2412       N  0.84990803  0.32207596  0.91174240    -0.81300
H2413       H  0.89331445  0.36700894  0.87996106     0.17800
C2414       C  0.81168473  0.32613562  0.96018673    -0.26200
C2415       C  0.78755126  0.30315743  0.97631030     0.35900
C2416       C  0.78886404  0.29750307  0.50733202    -0.20200
C2417       C  0.81866768  0.31185834  0.51830107    -0.25400
C2418       C  0.84694949  0.33139348  0.99975022     0.27200
H2419       H  0.80747534  0.33313208  0.93850172     0.13000
N2420       N  0.75744506  0.28909770  0.96405448    -0.82700
H2421       H  0.82345560  0.30466336  0.53956517     0.17900
N2422       N  0.87730054  0.34512816  0.01128563    -0.81300
H2423       H  0.75740851  0.29811328  0.94288521     0.33500
H2424       H  0.74438852  0.29423324  0.97840313     0.38000
H2425       H  0.87397468  0.33854266  0.53283184     0.33400
H2426       H  0.88966496  0.33908263  0.99695193     0.30100
H2427       H  0.85497148  0.31947297  0.88941775     0.33500
H2428       H  0.85460702  0.30808780  0.92500093     0.30100
H2429       H  0.92437411  0.45641553  0.94040503     0.38000
H2430       H  0.92445482  0.44418912  0.97546752     0.33500
C2431       C  0.69903419  0.19661419  0.00182543    -0.20300
C2432       C  0.67919865  0.16738757  0.01332123     0.36000
C2433       C  0.65718263  0.14542236  0.99415130    -0.26200
C2434       C  0.65488855  0.15192456  0.96383705     0.02400
C2435       C  0.67448595  0.18092607  0.95235765     0.27200
C2436       C  0.69606753  0.20294044  0.97146282    -0.25400
N2437       N  0.68557330  0.16046066  0.54612805    -0.82700
H2438       H  0.64191193  0.12300613  0.00273742     0.13000
C2439       C  0.63213308  0.12824743  0.94394956     0.02400
N2440       N  0.67260305  0.18778290  0.92118290    -0.81300
H2441       H  0.71083490  0.22519656  0.96229957     0.17800
C2442       C  0.60981844  0.13271538  0.93089255    -0.26200
C2443       C  0.58969867  0.11250576  0.90952731     0.35900
C2444       C  0.59158881  0.08684291  0.90109616    -0.20200
C2445       C  0.61332771  0.08187657  0.91526163    -0.25400
C2446       C  0.63380038  0.10247645  0.93638100     0.27200
H2447       H  0.60848225  0.15250977  0.93681445     0.13000
N2448       N  0.56793135  0.11871523  0.89611427    -0.82700
H2449       H  0.61494511  0.06227354  0.90933570     0.17900
N2450       N  0.65677927  0.09777946  0.94955399    -0.81300
H2451       H  0.57957947  0.13976449  0.88556082     0.33500
H2452       H  0.55473264  0.12007879  0.91342084     0.38000
H2453       H  0.65483880  0.07766476  0.94171448     0.33400
H2454       H  0.67890480  0.11816456  0.44289127     0.30100
H2455       H  0.68850546  0.21024373  0.91635271     0.33500
H2456       H  0.67836846  0.17455491  0.90789826     0.30100
H2457       H  0.70724937  0.16316667  0.54653288     0.38000
H2458       H  0.66475828  0.13775837  0.04899955     0.33500
C2459       C  0.90953123  0.40004819  0.75908117    -0.20300
C2460       C  0.87970979  0.37976162  0.76892703     0.36000
C2461       C  0.85920180  0.35773327  0.74923681    -0.26200
C2462       C  0.86784498  0.35467488  0.72001044     0.02400
C2463       C  0.89763741  0.37466247  0.70999211     0.27200
C2464       C  0.91811886  0.39747343  0.72954811    -0.25400
N2465       N  0.86994714  0.38145064  0.79890636    -0.82700
H2466       H  0.83622113  0.34284344  0.75690918     0.13000
C2467       C  0.84488170  0.33075482  0.70030357     0.02400
N2468       N  0.90704511  0.37142338  0.68026334    -0.81300
H2469       H  0.94106575  0.41268175  0.72203165     0.17800
C2470       C  0.83783522  0.33863547  0.67241101    -0.26200
C2471       C  0.81394093  0.31717191  0.65472349     0.35900
C2472       C  0.79657337  0.28719065  0.66512265    -0.20200
C2473       C  0.80408872  0.27924842  0.69278173    -0.25400
C2474       C  0.82815256  0.30061178  0.71036353     0.27200
H2475       H  0.85025796  0.36182892  0.66478747     0.13000
N2476       N  0.80673712  0.32628548  0.62685136    -0.82700
H2477       H  0.79117306  0.25620778  0.70074885     0.17900
N2478       N  0.83546977  0.29191702  0.73857884    -0.81300
H2479       H  0.80207681  0.34350600  0.63153008     0.33500
H2480       H  0.82585000  0.33512099  0.61290309     0.38000
H2481       H  0.82079283  0.26901947  0.74285056     0.33400
H2482       H  0.85714035  0.29484451  0.73648210     0.30100
H2483       H  0.92967594  0.38777186  0.67650243     0.33500
H2484       H  0.90590384  0.35053763  0.67938557     0.30100
H2485       H  0.86279793  0.36079836  0.80962011     0.38000
H2486       H  0.85135642  0.38464462  0.79725331     0.33500
C2487       C  0.69863395  0.19272787  0.66474149    -0.20300
C2488       C  0.66950332  0.17390211  0.65236003     0.36000
C2489       C  0.64704281  0.15043420  0.66983849    -0.26200
C2490       C  0.65302136  0.14551677  0.69954236     0.02400
C2491       C  0.68196476  0.16418102  0.71186030     0.27200
C2492       C  0.70441586  0.18739080  0.69446039    -0.25400
N2493       N  0.66228389  0.17883193  0.62241910    -0.82700
H2494       H  0.62478454  0.13613021  0.66025171     0.13000
C2495       C  0.62897593  0.12138471  0.71816875     0.02400
N2496       N  0.68843788  0.16004034  0.74240559    -0.81300
H2497       H  0.72650758  0.20137304  0.70450673     0.17800
C2498       C  0.63419300  0.09934588  0.73053250    -0.26200
C2499       C  0.61485127  0.07928067  0.75247803     0.35900
C2500       C  0.58940620  0.08105957  0.76236764    -0.20200
C2501       C  0.58286553  0.10156088  0.74795151    -0.25400
C2502       C  0.60246986  0.12183130  0.72602205     0.27200
H2503       H  0.65419405  0.09850467  0.72395520     0.13000
N2504       N  0.62184140  0.05782128  0.76512142    -0.82700
H2505       H  0.56300605  0.10262239  0.75455148     0.17900
N2506       N  0.59610988  0.14349590  0.71251698    -0.81300
H2507       H  0.62249237  0.04452720  0.74753924     0.33500
H2508       H  0.64341805  0.06960114  0.77472969     0.38000
H2509       H  0.57553542  0.14058066  0.72048373     0.33400
H2510       H  0.61292782  0.16491920  0.71949429     0.30100
H2511       H  0.70661039  0.15610981  0.74206591     0.33500
H2512       H  0.69520591  0.18007514  0.75423541     0.30100
H2513       H  0.65527836  0.15913288  0.60989415     0.38000
H2514       H  0.64409414  0.18268371  0.62385356     0.33500
C2515       C  0.72133497  0.72469122  0.14687440     0.79800
N2516       N  0.71957837  0.72518869  0.11625386    -0.78500
C2517       C  0.74231768  0.74767826  0.10011373     0.82300
N2518       N  0.76682912  0.76980160  0.11459966    -0.78400
C2519       C  0.76887167  0.76961597  0.14507608     0.82400
N2520       N  0.74607782  0.74697173  0.16097737    -0.80100
C2521       C  0.71884473  0.72512173  0.02076597     0.79800
N2522       N  0.74123716  0.74927841  0.00603924    -0.78500
C2523       C  0.76348871  0.77277044  0.02147817     0.82300
N2524       N  0.76350357  0.77187420  0.05203629    -0.78400
C2525       C  0.74122540  0.74804255  0.06713092     0.82400
N2526       N  0.71883835  0.72462686  0.05151066    -0.80100
C2527       C  0.74038304  0.96409294  0.14758637     0.79800
N2528       N  0.73868344  0.96114279  0.11693613    -0.78500
C2529       C  0.71453352  0.95911811  0.10173335     0.82300
N2530       N  0.69224566  0.96048186  0.11725104    -0.78400
C2531       C  0.69399111  0.96387637  0.14773040     0.82400
N2532       N  0.71787238  0.96539586  0.16252168    -0.80100
C2533       C  0.73519276  0.95670429  0.02177745     0.79800
N2534       N  0.73620343  0.95782420  0.05249069    -0.78500
C2535       C  0.71308264  0.95701184  0.06852502     0.82300
N2536       N  0.68906807  0.95549399  0.05365816    -0.78400
C2537       C  0.68796157  0.95470105  0.02294796     0.82400
N2538       N  0.71113530  0.95530181  0.00733626    -0.80100
C2539       C  0.97053433  0.72973022  0.14689256     0.79800
N2540       N  0.96828652  0.70542136  0.16166163    -0.78500
C2541       C  0.97060026  0.68364523  0.14637766     0.82300
N2542       N  0.97479402  0.68627722  0.11597909    -0.78400
C2543       C  0.97699510  0.71034080  0.10089622     0.82400
N2544       N  0.97514391  0.73219971  0.11645632    -0.80100
C2545       C  0.98786357  0.73725037  0.02125585     0.79800
N2546       N  0.98317996  0.73569102  0.05173165    -0.78500
C2547       C  0.98177072  0.71246969  0.06795620     0.82300
N2548       N  0.98472115  0.69070809  0.05357986    -0.78400
C2549       C  0.98924289  0.69196405  0.02329925     0.82400
N2550       N  0.99080628  0.71525026  0.00737096    -0.80100
O2551       O  0.51622387  0.91567123  0.37177907    -0.88600
C2552       C  0.57186659  0.56887801  0.28998965     1.11500
O2553       O  0.98450122  0.94434267  0.33517143    -1.36400
O2554       O  0.57698582  0.55093192  0.36988691    -0.90000
O2555       O  0.95832627  0.88353716  0.36883573    -0.90700
O2556       O  0.95446923  0.94501466  0.39938722    -0.79500
O2557       O  0.54778875  0.98212815  0.36411073    -1.01600
C2558       C  0.98514921  0.53141525  0.39157653     1.21500
O2559       O  0.95422716  0.97671800  0.33669071    -1.36500
Mn2560     Mn  0.98496543  0.97659800  0.30321594     1.82100
O2561       O  0.98560615  0.50827483  0.39963074    -0.78600
O2562       O  0.54894390  0.57281232  0.36623681    -0.88000
C2563       C  0.98329778  0.53140955  0.28050453     1.12600
C2564       C  0.56994068  0.57030440  0.37846973     1.07300
O2565       O  0.95340542  0.94617904  0.27245654    -0.79500
O2566       O  0.51827097  0.51152002  0.33430172    -1.33200
O2567       O  0.92538851  0.91799191  0.30758880    -0.98800
C2568       C  0.89923736  0.97683514  0.38177667     1.06000
Mn2569     Mn  0.51661427  0.55201341  0.33284654     1.48600
O2570       O  0.89364490  0.95189684  0.37025407    -0.88000
Mn2571     Mn  0.94357537  0.90213789  0.33551321     1.49600
O2572       O  0.51458111  0.91384768  0.30368532    -0.91800
C2573       C  0.54393680  0.98292470  0.39112786     1.21400
C2574       C  0.98201730  0.88776559  0.28988521     1.11300
Mn2575     Mn  0.98585986  0.97578841  0.36862252     1.81000
O2576       O  0.98372606  0.53610794  0.30761076    -0.97000
Mn2577     Mn  0.52942901  0.94749507  0.33684103     1.49300
C2578       C  0.98349589  0.88752181  0.37848265     1.07800
Mn2579     Mn  0.95040650  0.51652861  0.33689868     1.49900
C2580       C  0.89923378  0.97831900  0.29259035     1.10700
O2581       O  0.92528188  0.91742248  0.36452000    -1.02800
O2582       O  0.54939131  0.57114027  0.29879025    -0.92400
C2583       C  0.93015075  0.92235581  0.39153447     1.22000
O2584       O  0.98464669  0.53561169  0.36456135    -1.03200
O2585       O  0.57886415  0.55079293  0.30202092    -0.90600
O2586       O  0.91719644  0.50157636  0.30373103    -0.90200
O2587       O  0.95725339  0.88361489  0.30101241    -0.90200
Mn2588     Mn  0.56264882  0.51806586  0.33571795     1.47900
O2589       O  0.98420575  0.50848716  0.27227484    -0.78700
C2590       C  0.92981914  0.92289409  0.28060170     1.15100
O2591       O  0.52021610  0.98217762  0.39968042    -0.77400
O2592       O  0.51824208  0.97896428  0.27256027    -0.77000
Mn2593     Mn  0.91108092  0.93697363  0.33623525     1.51100
O2594       O  0.91799784  0.50044464  0.37167840    -0.89400
O2595       O  0.54703680  0.98057556  0.30754694    -0.96900
O2596       O  0.89421140  0.95293068  0.30238191    -0.91900
C2597       C  0.54196802  0.97951290  0.28053104     1.12800
C2598       C  0.98570781  0.55352921  0.41360467    -0.20300
C2599       C  0.97776299  0.57509047  0.40471837     0.36000
C2600       C  0.97988473  0.59663618  0.42541728    -0.26200
C2601       C  0.99027998  0.59772490  0.45489698     0.02400
C2602       C  0.50353611  0.58103884  0.45878220     0.27200
C2603       C  0.49896148  0.55770363  0.43879852    -0.25400
N2604       N  0.96741618  0.57527532  0.37466867    -0.82700
H2605       H  0.97344544  0.61282802  0.41831578     0.13000
C2606       C  0.99265751  0.62175785  0.47532000     0.02400
N2607       N  0.51833221  0.58445208  0.48731117    -0.81300
H2608       H  0.50648891  0.54219477  0.44525196     0.17800
C2609       C  0.97504480  0.61411507  0.50170802    -0.26200
C2610       C  0.97451295  0.63750699  0.01574838     0.35900
C2611       C  0.99207821  0.66811501  0.00745083    -0.20200
C2612       C  0.00825647  0.67438219  0.48375892    -0.25400
C2613       C  0.01007452  0.65225709  0.46687345     0.27200
H2614       H  0.96122820  0.59182467  0.00396533     0.13000
N2615       N  0.95417685  0.62864221  0.04095406    -0.82700
H2616       H  0.02137034  0.69767200  0.47656146     0.17900
N2617       N  0.02950826  0.66076317  0.44094626    -0.81300
H2618       H  0.93229478  0.61391873  0.03311764     0.33500
H2619       H  0.96003984  0.61683863  0.05613622     0.38000
H2620       H  0.02293408  0.67208380  0.42589259     0.33400
H2621       H  0.05159610  0.67583328  0.44800402     0.30100
H2622       H  0.52391329  0.56761673  0.49011038     0.33500
H2623       H  0.53877347  0.60495070  0.48675064     0.30100
H2624       H  0.98210921  0.59624010  0.36497712     0.38000
H2625       H  0.94596660  0.57302401  0.37607840     0.33500
C2626       C  0.98806544  0.76145967  0.50375369    -0.20300
C2627       C  0.00234865  0.76854741  0.47506688     0.36000
C2628       C  0.00190385  0.79074622  0.45713125    -0.26200
C2629       C  0.98782246  0.80652521  0.46716636     0.02400
C2630       C  0.97424317  0.80029982  0.49604543     0.27200
C2631       C  0.97276851  0.77614342  0.01279796    -0.25400
N2632       N  0.53388661  0.76541557  0.46749010    -0.82700
H2633       H  0.52855414  0.80896855  0.44031353     0.13000
C2634       C  0.98675406  0.82871267  0.44652732     0.02400
N2635       N  0.96024081  0.81679174  0.50684236    -0.81300
H2636       H  0.96060152  0.76938686  0.03406643     0.17800
C2637       C  0.95872530  0.82398347  0.43660278    -0.26200
C2638       C  0.95681533  0.84325265  0.41527858     0.35900
C2639       C  0.98374522  0.86770878  0.40311757    -0.20200
C2640       C  0.52268026  0.88339032  0.41924295    -0.25400
C2641       C  0.52598877  0.86508557  0.44078383     0.27200
H2642       H  0.93820081  0.80485969  0.44526615     0.13000
N2643       N  0.92759793  0.83787060  0.40608080    -0.82700
H2644       H  0.54295799  0.90246664  0.41013028     0.17900
N2645       N  0.55561469  0.87228717  0.45040797    -0.81300
H2646       H  0.91033365  0.81811966  0.41585778     0.33500
H2647       H  0.92538065  0.85544111  0.41511437     0.38000
H2648       H  0.56785059  0.87251854  0.43134161     0.33400
H2649       H  0.56636063  0.89402102  0.45952487     0.30100
H2650       H  0.94499562  0.80368888  0.02653501     0.33500
H2651       H  0.97719690  0.83937221  0.50894294     0.30100
H2652       H  0.55168635  0.77038069  0.48233752     0.38000
H2653       H  0.54372956  0.77445963  0.44651886     0.33500
C2654       C  0.98102775  0.55209915  0.25845425    -0.20300
C2655       C  0.99072342  0.58232243  0.26621380     0.36000
C2656       C  0.98630289  0.60077455  0.24605448    -0.26200
C2657       C  0.97234810  0.58992807  0.21799136     0.02400
C2658       C  0.96310336  0.55994912  0.20968771     0.27200
C2659       C  0.96770479  0.54136290  0.22994478    -0.25400
N2660       N  0.00551035  0.59463652  0.29445151    -0.82700
H2661       H  0.99399259  0.62392803  0.25235581     0.13000
C2662       C  0.96843751  0.61087730  0.19772191     0.02400
N2663       N  0.94851014  0.54834822  0.18110562    -0.81300
H2664       H  0.96000235  0.51817293  0.22384586     0.17800
C2665       C  0.51508651  0.65508729  0.20638443    -0.26200
C2666       C  0.51458248  0.67874008  0.19103491     0.35900
C2667       C  0.96924630  0.65768081  0.16293850    -0.20200
C2668       C  0.95260129  0.64789539  0.18999389    -0.25400
C2669       C  0.95182802  0.62454125  0.20729396     0.27200
H2670       H  0.52856725  0.66001031  0.22672257     0.13000
N2671       N  0.53270809  0.70901979  0.20175669    -0.82700
H2672       H  0.94014092  0.65856472  0.19775269     0.17900
N2673       N  0.93444849  0.61476258  0.23476385    -0.81300
H2674       H  0.52625845  0.70985864  0.22402135     0.33500
H2675       H  0.55529236  0.71426453  0.20197436     0.38000
H2676       H  0.92387833  0.62733353  0.23892058     0.33400
H2677       H  0.91715235  0.59250494  0.23147655     0.30100
H2678       H  0.53574948  0.60101146  0.17650617     0.33500
H2679       H  0.92801385  0.54825420  0.18144980     0.30100
H2680       H  0.99295239  0.60234200  0.30620662     0.38000
H2681       H  0.02686623  0.61318482  0.28989762     0.33500
C2682       C  0.96946250  0.75403374  0.16409002    -0.20300
C2683       C  0.47109955  0.75613911  0.19638735     0.36000
C2684       C  0.47038659  0.77877666  0.21351272    -0.26200
C2685       C  0.97160279  0.80126547  0.19908800     0.02400
C2686       C  0.99060125  0.80799388  0.17361247     0.27200
C2687       C  0.98920755  0.78430659  0.15624043    -0.25400
N2688       N  0.45590219  0.72583624  0.20752601    -0.82700
H2689       H  0.45905595  0.77308810  0.23527117     0.13000
C2690       C  0.97469741  0.82533413  0.22004626     0.02400
N2691       N  0.01151879  0.83884097  0.16582774    -0.81300
H2692       H  0.00428522  0.78950310  0.13708732     0.17800
C2693       C  0.51383751  0.85333959  0.23643222    -0.26200
C2694       C  0.51560882  0.87344208  0.25895790     0.35900
C2695       C  0.98055352  0.86760124  0.26477737    -0.20200
C2696       C  0.95339222  0.85095748  0.24846006    -0.25400
C2697       C  0.95028232  0.82998884  0.22612911     0.27200
H2698       H  0.53427537  0.85352340  0.22949167     0.13000
N2699       N  0.54449369  0.89380426  0.27185395    -0.82700
H2700       H  0.93436988  0.85408883  0.25328399     0.17900
N2701       N  0.92242052  0.81327457  0.20971844    -0.81300
H2702       H  0.55321029  0.88111252  0.28132613     0.33500
H2703       H  0.55887002  0.90657820  0.25424323     0.38000
H2704       H  0.90687592  0.81961441  0.21665506     0.33400
H2705       H  0.92706438  0.81934044  0.18694952     0.30100
H2706       H  0.02403655  0.83999993  0.14663816     0.33500
H2707       H  0.99883991  0.84893265  0.16006597     0.30100
H2708       H  0.46513556  0.72577209  0.22857641     0.38000
H2709       H  0.43308915  0.71907447  0.21074736     0.33500
C2710       C  0.87998084  0.97605424  0.40733805    -0.20300
C2711       C  0.87995592  0.00216298  0.41757233     0.36000
C2712       C  0.85929340  0.99960703  0.43985771    -0.26200
C2713       C  0.83859456  0.97152451  0.45211619     0.02400
C2714       C  0.83942301  0.94564640  0.44325761     0.27200
C2715       C  0.86012365  0.94814461  0.42100220    -0.25400
N2716       N  0.89993149  0.52768619  0.41029711    -0.82700
H2717       H  0.85681897  0.51343853  0.45104539     0.13000
C2718       C  0.81412943  0.96913476  0.47167141     0.02400
N2719       N  0.81875289  0.91688460  0.45645224    -0.81300
H2720       H  0.86025750  0.92800643  0.41393830     0.17800
C2721       C  0.78470841  0.95494242  0.46007615    -0.26200
C2722       C  0.76099500  0.95405887  0.47667685     0.35900
C2723       C  0.76671640  0.96757199  0.50556275    -0.20200
C2724       C  0.79037037  0.97517073  0.01526192    -0.25400
C2725       C  0.82000142  0.98204632  0.50072584     0.27200
H2726       H  0.77604764  0.43827016  0.43716203     0.13000
N2727       N  0.72712840  0.43270906  0.46372027    -0.82700
H2728       H  0.79422026  0.98562949  0.03733837     0.17900
N2729       N  0.84556340  0.99664115  0.00944488    -0.81300
H2730       H  0.72063756  0.41031074  0.45894950     0.33500
H2731       H  0.72809842  0.44342017  0.44331368     0.38000
H2732       H  0.84537076  0.00488555  0.03102134     0.33400
H2733       H  0.85625444  0.97993786  0.51519983     0.30100
H2734       H  0.82213881  0.90002071  0.44730818     0.33500
H2735       H  0.82386231  0.91811149  0.47947185     0.30100
H2736       H  0.91245140  0.53945459  0.42930389     0.38000
H2737       H  0.88839714  0.53832140  0.40242445     0.33500
C2738       C  0.56680191  0.98444871  0.41250517    -0.20300
C2739       C  0.59710124  0.99577077  0.40321754     0.36000
C2740       C  0.61771463  0.99456565  0.42296027    -0.26200
C2741       C  0.60864792  0.98150280  0.45161914     0.02400
C2742       C  0.57864123  0.97080960  0.46139082     0.27200
C2743       C  0.55806097  0.97278534  0.44181830    -0.25400
N2744       N  0.60925166  0.51471679  0.38115523    -0.82700
H2745       H  0.63892603  0.50186269  0.42184216     0.13000
C2746       C  0.63073147  0.97825283  0.47043326     0.02400
N2747       N  0.56901108  0.95725345  0.49073103    -0.81300
H2748       H  0.53482422  0.96396340  0.44896670     0.17800
C2749       C  0.62865505  0.47751596  0.50104719    -0.26200
C2750       C  0.66098793  0.49138259  0.01565184     0.35900
C2751       C  0.66258295  0.95432328  0.00601552    -0.20200
C2752       C  0.66708344  0.96152371  0.47685914    -0.25400
C2753       C  0.64516120  0.96296818  0.45919734     0.27200
H2754       H  0.61574377  0.48717688  0.51021473     0.13000
N2755       N  0.66904796  0.50700350  0.04413485    -0.82700
H2756       H  0.67807906  0.94974197  0.46808768     0.17900
N2757       N  0.63744261  0.94895577  0.42987183    -0.81300
H2758       H  0.65454911  0.51519797  0.04936852     0.33500
H2759       H  0.69068054  0.52583997  0.04173735     0.38000
H2760       H  0.65023940  0.93877342  0.42490152     0.33400
H2761       H  0.61481979  0.93171364  0.43062993     0.30100
H2762       H  0.54626496  0.95050658  0.49439319     0.33500
H2763       H  0.55558839  0.91511936  0.98284039     0.30100
H2764       H  0.62617701  0.53593254  0.38850196     0.38000
H2765       H  0.61947501  0.50546715  0.36784676     0.33500
C2766       C  0.88044697  0.97861363  0.26687744    -0.20300
C2767       C  0.87959513  0.00480897  0.25837074     0.36000
C2768       C  0.85891553  0.00264217  0.23619138    -0.26200
C2769       C  0.83918661  0.97514326  0.22208799     0.02400
C2770       C  0.84120143  0.94946280  0.22911090     0.27200
C2771       C  0.86186046  0.95151214  0.25123002    -0.25400
N2772       N  0.89881945  0.03330229  0.27281377    -0.82700
H2773       H  0.85757538  0.02242383  0.23034206     0.13000
C2774       C  0.81469568  0.97308060  0.20232724     0.02400
N2775       N  0.82158429  0.92116505  0.21450848    -0.81300
H2776       H  0.86276476  0.93147255  0.25681586     0.17800
C2777       C  0.81231194  0.96373463  0.17209843    -0.26200
C2778       C  0.78848262  0.96055141  0.15344392     0.35900
C2779       C  0.76674409  0.96725981  0.16529317    -0.20200
C2780       C  0.76978840  0.97711824  0.19551051    -0.25400
C2781       C  0.79315340  0.97978401  0.21409881     0.27200
H2782       H  0.83238694  0.46628365  0.16096743     0.13000
N2783       N  0.79318618  0.46522665  0.12010957    -0.82700
H2784       H  0.75364849  0.98261250  0.20505833     0.17900
N2785       N  0.79482052  0.98885820  0.24515968    -0.81300
H2786       H  0.81102970  0.46171657  0.11439484     0.33500
H2787       H  0.77327203  0.44485809  0.11592799     0.38000
H2788       H  0.77744575  0.99326561  0.25027282     0.33400
H2789       H  0.79126119  0.97068015  0.25869872     0.30100
H2790       H  0.82615043  0.90454582  0.22197883     0.33500
H2791       H  0.79938624  0.91427509  0.22109436     0.30100
H2792       H  0.92098495  0.04069234  0.26575967     0.38000
H2793       H  0.89375392  0.04957222  0.26535479     0.33500
C2794       C  0.56308051  0.97770653  0.25867753    -0.20300
C2795       C  0.56334098  0.98373527  0.22742932     0.36000
C2796       C  0.58417633  0.98142035  0.20832391    -0.26200
C2797       C  0.60444207  0.97300089  0.21974791     0.02400
C2798       C  0.60418300  0.96705357  0.25086583     0.27200
C2799       C  0.58380635  0.96975419  0.26993220    -0.25400
N2800       N  0.54329125  0.99306610  0.21530362    -0.82700
H2801       H  0.58484904  0.98647348  0.18446450     0.13000
C2802       C  0.62687572  0.97166198  0.19944352     0.02400
N2803       N  0.62437068  0.95782700  0.26292879    -0.81300
H2804       H  0.58377005  0.96496252  0.29378745     0.17800
C2805       C  0.65763125  0.98946918  0.20650644    -0.26200
C2806       C  0.67982446  0.98756750  0.18966473     0.35900
C2807       C  0.67112668  0.96755372  0.16483680    -0.20200
C2808       C  0.64039029  0.95059911  0.15689652    -0.25400
C2809       C  0.61806379  0.95217357  0.17423679     0.27200
H2810       H  0.67308489  0.52054948  0.22689542     0.13000
N2811       N  0.72180992  0.52584975  0.19857637    -0.82700
H2812       H  0.63371425  0.93532639  0.13781385     0.17900
N2813       N  0.58655292  0.93359753  0.16684766    -0.81300
H2814       H  0.72320888  0.53682825  0.21894809     0.33500
H2815       H  0.73337779  0.54266513  0.18240135     0.38000
H2816       H  0.58390756  0.92055273  0.14768493     0.33400
H2817       H  0.57606475  0.91854052  0.18473238     0.30100
H2818       H  0.62138530  0.95440210  0.28627396     0.33500
H2819       H  0.61852287  0.93698076  0.25332202     0.30100
H2820       H  0.52137842  0.97443807  0.21598922     0.38000
H2821       H  0.54809557  0.99882619  0.19248427     0.33500
C2822       C  0.90717453  0.90220410  0.41381056    -0.20300
C2823       C  0.90582158  0.91150138  0.44362372     0.36000
C2824       C  0.88248362  0.89153534  0.46307767    -0.26200
C2825       C  0.86075958  0.86253381  0.45342529     0.02400
C2826       C  0.86273198  0.85299810  0.42402583     0.27200
C2827       C  0.88537480  0.87312802  0.40437649    -0.25400
N2828       N  0.92742783  0.94134160  0.45378095    -0.82700
H2829       H  0.88071101  0.89888916  0.48557106     0.13000
C2830       C  0.83504527  0.84263539  0.47345575     0.02400
N2831       N  0.84174217  0.82277561  0.41430328    -0.81300
H2832       H  0.88641066  0.86574130  0.38166809     0.17800
C2833       C  0.80552509  0.83090671  0.46243447    -0.26200
C2834       C  0.78040614  0.80964913  0.47897400     0.35900
C2835       C  0.78825542  0.79844727  0.00516681    -0.20200
C2836       C  0.81734442  0.81350527  0.01801693    -0.25400
C2837       C  0.83951247  0.83432046  0.50253430     0.27200
H2838       H  0.80214368  0.83800776  0.44043685     0.13000
N2839       N  0.75046721  0.79753505  0.46672787    -0.82700
H2840       H  0.82096987  0.80692238  0.04017662     0.17900
N2841       N  0.86959395  0.84627432  0.51432340    -0.81300
H2842       H  0.75125551  0.80648825  0.44530637     0.33500
H2843       H  0.73863834  0.80449242  0.48074328     0.38000
H2844       H  0.87150465  0.84181249  0.03637470     0.33400
H2845       H  0.88086304  0.83843848  0.50060957     0.30100
H2846       H  0.84619349  0.81938883  0.39200264     0.33500
H2847       H  0.84530415  0.80810891  0.42773241     0.30100
H2848       H  0.92391007  0.95656601  0.44126679     0.38000
H2849       H  0.92350966  0.94427130  0.47640692     0.33500
C2850       C  0.68900784  0.70378586  0.50537738    -0.20300
C2851       C  0.66578337  0.67656092  0.51827440     0.36000
C2852       C  0.64443856  0.65376136  0.49926334    -0.26200
C2853       C  0.64597700  0.65739210  0.46784855     0.02400
C2854       C  0.66874188  0.68432158  0.45491471     0.27200
C2855       C  0.68973817  0.70724050  0.47371280    -0.25400
N2856       N  0.68577997  0.66233484  0.04262788    -0.82700
H2857       H  0.62670852  0.63288292  0.50890344     0.13000
C2858       C  0.62390947  0.63292839  0.44823128     0.02400
N2859       N  0.67059169  0.68811260  0.42260762    -0.81300
H2860       H  0.70708429  0.72778997  0.46325213     0.17800
C2861       C  0.60314609  0.63754453  0.43206008    -0.26200
C2862       C  0.58480900  0.61713102  0.40984462     0.35900
C2863       C  0.58715067  0.59128764  0.40355568    -0.20200
C2864       C  0.60697051  0.58600240  0.42105576    -0.25400
C2865       C  0.62550303  0.60667614  0.44324408     0.27200
H2866       H  0.60189758  0.65773172  0.43602245     0.13000
N2867       N  0.56460324  0.62343038  0.39321637    -0.82700
H2868       H  0.60853155  0.56603496  0.41703186     0.17900
N2869       N  0.64646207  0.60154582  0.46016898    -0.81300
H2870       H  0.57734740  0.64441611  0.38275940     0.33500
H2871       H  0.54984286  0.62491305  0.40857630     0.38000
H2872       H  0.64467682  0.58106870  0.45391951     0.33400
H2873       H  0.67912562  0.62370670  0.93707466     0.30100
H2874       H  0.68852549  0.70935083  0.41664590     0.33500
H2875       H  0.67554684  0.67229873  0.41345355     0.30100
H2876       H  0.70802477  0.66655005  0.04212834     0.38000
H2877       H  0.64443810  0.65155412  0.55603823     0.33500
C2878       C  0.90760296  0.90193045  0.25853361    -0.20300
C2879       C  0.87715975  0.88257981  0.26695981     0.36000
C2880       C  0.85685002  0.86219729  0.24600337    -0.26200
C2881       C  0.86633664  0.85984721  0.21693116     0.02400
C2882       C  0.89660870  0.87940132  0.20808392     0.27200
C2883       C  0.91692499  0.90059113  0.22894988    -0.25400
N2884       N  0.86659414  0.88358940  0.29674073    -0.82700
H2885       H  0.83344416  0.84772590  0.25266748     0.13000
C2886       C  0.84395534  0.83627638  0.19664976     0.02400
N2887       N  0.90667568  0.87728655  0.17829361    -0.81300
H2888       H  0.94030109  0.91538078  0.22242655     0.17800
C2889       C  0.83721878  0.84437061  0.16871613    -0.26200
C2890       C  0.81357014  0.82293045  0.15059412     0.35900
C2891       C  0.79598249  0.79291843  0.16116784    -0.20200
C2892       C  0.80356252  0.78485363  0.18869279    -0.25400
C2893       C  0.82743267  0.80606942  0.20639332     0.27200
H2894       H  0.84986038  0.86767770  0.16148160     0.13000
N2895       N  0.80661746  0.83196264  0.12238826    -0.82700
H2896       H  0.79062503  0.76180420  0.19663202     0.17900
N2897       N  0.83454434  0.79721884  0.23463989    -0.81300
H2898       H  0.82007100  0.85525739  0.11940554     0.33500
H2899       H  0.81273905  0.82220595  0.10505429     0.38000
H2900       H  0.81992776  0.77427722  0.23873856     0.33400
H2901       H  0.85627087  0.80027268  0.23275175     0.30100
H2902       H  0.92958625  0.89326384  0.17547708     0.33500
H2903       H  0.90481811  0.85613200  0.17636658     0.30100
H2904       H  0.85789715  0.86227975  0.30652618     0.38000
H2905       H  0.84891359  0.88814890  0.29478830     0.33500
C2906       C  0.69680106  0.70038842  0.16519083    -0.20300
C2907       C  0.67478725  0.67245394  0.15257619     0.36000
C2908       C  0.65228490  0.65051550  0.17137467    -0.26200
C2909       C  0.65176885  0.65566432  0.20236922     0.02400
C2910       C  0.67367406  0.68315781  0.21509931     0.27200
C2911       C  0.69583253  0.70527967  0.19640672    -0.25400
N2912       N  0.67568409  0.66602710  0.12106755    -0.82700
H2913       H  0.63553214  0.62898009  0.16203088     0.13000
C2914       C  0.62955536  0.63137545  0.22192427     0.02400
N2915       N  0.67367853  0.68816414  0.24710864    -0.81300
H2916       H  0.71247829  0.72646140  0.20644124     0.17800
C2917       C  0.63795909  0.61229110  0.23584197    -0.26200
C2918       C  0.61910452  0.59097456  0.25720682     0.35900
C2919       C  0.59118562  0.58879941  0.26510621    -0.20200
C2920       C  0.58225829  0.60712015  0.24980082    -0.25400
C2921       C  0.60125381  0.62846843  0.22832685     0.27200
H2922       H  0.65971838  0.61450309  0.23063460     0.13000
N2923       N  0.62891395  0.57220179  0.27119606    -0.82700
H2924       H  0.56071814  0.60535018  0.25505182     0.17900
N2925       N  0.59211034  0.64737712  0.21323309    -0.81300
H2926       H  0.63234140  0.56001462  0.25423441     0.33500
H2927       H  0.64967250  0.58609695  0.28176787     0.38000
H2928       H  0.57041850  0.64206366  0.22018410     0.33400
H2929       H  0.60676149  0.66960300  0.21997502     0.30100
H2930       H  0.69173498  0.70934529  0.25301361     0.33500
H2931       H  0.65388279  0.68845096  0.25233816     0.30100
H2932       H  0.69529544  0.66487595  0.11747119     0.38000
H2933       H  0.65748600  0.64482211  0.11546842     0.33500
C2934       C  0.71996648  0.72320542  0.64917457     0.79800
N2935       N  0.71728334  0.72515390  0.61878519    -0.78500
C2936       C  0.73977729  0.74812585  0.60279297     0.82300
N2937       N  0.76496049  0.76929480  0.61726802    -0.78400
C2938       C  0.76803596  0.76775635  0.64751906     0.82400
N2939       N  0.74544588  0.74460739  0.66317916    -0.80100
C2940       C  0.71336326  0.72873751  0.52354973     0.79800
N2941       N  0.73614112  0.75271701  0.50895259    -0.78500
C2942       C  0.75946156  0.77530728  0.52426191     0.82300
N2943       N  0.76027843  0.77362764  0.55478370    -0.78400
C2944       C  0.73767364  0.74996242  0.56988275     0.82400
N2945       N  0.71425201  0.72757219  0.55423694    -0.80100
C2946       C  0.74500297  0.97528555  0.64843576     0.79800
N2947       N  0.74440224  0.97332030  0.61776291    -0.78500
C2948       C  0.72123808  0.97253086  0.60193802     0.82300
N2949       N  0.69869919  0.97388616  0.61680413    -0.78400
C2950       C  0.69925782  0.97619800  0.64733042     0.82400
N2951       N  0.72234645  0.97677319  0.66291707    -0.80100
C2952       C  0.74266736  0.96904837  0.52273148     0.79800
N2953       N  0.74298717  0.96967284  0.55344125    -0.78500
C2954       C  0.72093328  0.97145183  0.56886314     0.82300
N2955       N  0.69878990  0.97300134  0.55350381    -0.78400
C2956       C  0.69855928  0.97285194  0.52285549     0.82400
N2957       N  0.72052158  0.97080447  0.50771570    -0.80100
C2958       C  0.97184055  0.73051999  0.64930502     0.79800
N2959       N  0.97126519  0.70677582  0.66361945    -0.78500
C2960       C  0.97350213  0.68529878  0.64779116     0.82300
N2961       N  0.97606884  0.68755255  0.61734457    -0.78400
C2962       C  0.97666129  0.71094583  0.60254949     0.82400
N2963       N  0.97481185  0.73265587  0.61856776    -0.80100
C2964       C  0.98628790  0.73652284  0.52245193     0.79800
N2965       N  0.98201410  0.73559391  0.55298305    -0.78500
C2966       C  0.98027371  0.71237759  0.56946379     0.82300
N2967       N  0.98258675  0.69009767  0.55531439    -0.78400
C2968       C  0.98668611  0.69073522  0.52501566     0.82400
N2969       N  0.98851347  0.71398460  0.50885750    -0.80100
O2970       O  0.51265405  0.91162665  0.86803606    -0.88600
C2971       C  0.56877628  0.56559917  0.79094746     1.11500
O2972       O  0.98612839  0.94722617  0.83621253    -1.36400
O2973       O  0.57549079  0.54665581  0.86912556    -0.90000
O2974       O  0.95983256  0.88695872  0.87070974    -0.90700
O2975       O  0.95530516  0.94865770  0.89959862    -0.79500
O2976       O  0.54526667  0.97790997  0.86265593    -1.01600
C2977       C  0.98850345  0.53323118  0.88949347     1.21500
O2978       O  0.95536995  0.97922686  0.83621876    -1.36500
Mn2979     Mn  0.98658324  0.97870215  0.80339488     1.82100
O2980       O  0.98875518  0.51006545  0.89785539    -0.78600
O2981       O  0.54835266  0.56963424  0.86815620    -0.88000
C2982       C  0.98672682  0.53218249  0.77864546     1.12600
C2983       C  0.56957601  0.56645597  0.87889242     1.07300
O2984       O  0.95519521  0.94729631  0.77242557    -0.79500
O2985       O  0.51520711  0.50856096  0.83581777    -1.33200
O2986       O  0.92711250  0.92012555  0.80793593    -0.98800
C2987       C  0.89935527  0.97923410  0.88041442     1.06000
Mn2988     Mn  0.51474490  0.54969004  0.83545334     1.48600
O2989       O  0.89441225  0.95450339  0.86892121    -0.88000
Mn2990     Mn  0.94534810  0.90497041  0.83663798     1.49600
O2991       O  0.51185480  0.91150600  0.80008736    -0.91800
C2992       C  0.54051058  0.97710885  0.88971833     1.21400
C2993       C  0.98458403  0.89069709  0.79178519     1.11300
Mn2994     Mn  0.98680414  0.97901182  0.86884141     1.81000
O2995       O  0.98691998  0.53685954  0.80569334    -0.97000
Mn2996     Mn  0.52667807  0.94429129  0.83410060     1.49300
C2997       C  0.98486399  0.89065719  0.88039835     1.07800
Mn2998     Mn  0.95353180  0.51798611  0.83513016     1.49900
C2999       C  0.90028827  0.98027404  0.79177780     1.10700
O3000       O  0.92661270  0.92040228  0.86476102    -1.02800
O3001       O  0.54697475  0.56858863  0.80067340    -0.92400
C3002       C  0.93137735  0.92562026  0.89173475     1.22000
O3003       O  0.98809815  0.53717782  0.86242824    -1.03200
O3004       O  0.57487266  0.54635424  0.80164601    -0.90600
O3005       O  0.91950091  0.50253563  0.80248058    -0.90200
O3006       O  0.95982910  0.88643985  0.80304854    -0.90200
Mn3007     Mn  0.55902909  0.51364091  0.83519450     1.47900
O3008       O  0.98626918  0.50855349  0.77058436    -0.78700
C3009       C  0.93144153  0.92421684  0.78086608     1.15100
O3010       O  0.51706602  0.97702307  0.89816642    -0.77400
O3011       O  0.51635211  0.97780454  0.77095923    -0.77000
Mn3012     Mn  0.91238384  0.93938656  0.83573731     1.51100
O3013       O  0.92171738  0.50292842  0.87038544    -0.89400
O3014       O  0.54485005  0.97816504  0.80580491    -0.96900
O3015       O  0.89555337  0.95489170  0.80131068    -0.91900
C3016       C  0.54000809  0.97813584  0.77880653     1.12800
C3017       C  0.98874075  0.55540040  0.91124144    -0.20300
C3018       C  0.98286830  0.57822850  0.90159017     0.36000
C3019       C  0.98472115  0.59972692  0.92219922    -0.26200
C3020       C  0.99259197  0.59936855  0.95241037     0.02400
C3021       C  0.49764255  0.57739134  0.96368407     0.27200
C3022       C  0.49410278  0.55434365  0.94364020    -0.25400
N3023       N  0.97472584  0.57966667  0.87091187    -0.82700
H3024       H  0.97995616  0.61694018  0.91448277     0.13000
C3025       C  0.99477152  0.62329507  0.97285731     0.02400
N3026       N  0.50968684  0.57944344  0.99347685    -0.81300
H3027       H  0.50051576  0.53821349  0.95095889     0.17800
C3028       C  0.97588105  0.61537296  0.99830390    -0.26200
C3029       C  0.97346924  0.63634867  0.51889496     0.35900
C3030       C  0.98962955  0.66674692  0.50944090    -0.20200
C3031       C  0.01178858  0.67606763  0.98263244    -0.25400
C3032       C  0.01362188  0.65401086  0.96549788     0.27200
H3033       H  0.96147519  0.59067861  0.50829579     0.13000
N3034       N  0.95436045  0.62772383  0.54505876    -0.82700
H3035       H  0.02574768  0.69959612  0.97652399     0.17900
N3036       N  0.03425543  0.66257510  0.94040087    -0.81300
H3037       H  0.93231233  0.61206847  0.53837768     0.33500
H3038       H  0.96165450  0.61703916  0.56013882     0.38000
H3039       H  0.04629914  0.68599443  0.93782810     0.33400
H3040       H  0.05015747  0.65615993  0.94557812     0.30100
H3041       H  0.51411599  0.56192125  0.99712468     0.33500
H3042       H  0.53051757  0.59950250  0.99455723     0.30100
H3043       H  0.99058389  0.60070387  0.86214920     0.38000
H3044       H  0.95358645  0.57821664  0.87092130     0.33500
C3045       C  0.98878186  0.76203915  0.00292025    -0.20300
C3046       C  0.00448882  0.77101437  0.97497287     0.36000
C3047       C  0.00315550  0.79309377  0.95744255    -0.26200
C3048       C  0.98701274  0.80693266  0.96722822     0.02400
C3049       C  0.97169271  0.79845894  0.99521350     0.27200
C3050       C  0.97448264  0.77780930  0.51407372    -0.25400
N3051       N  0.52110214  0.75734786  0.96223901    -0.82700
H3052       H  0.51486419  0.80000135  0.93497249     0.13000
C3053       C  0.98632603  0.83001627  0.94749155     0.02400
N3054       N  0.95511766  0.81253035  0.00560861    -0.81300
H3055       H  0.96354066  0.77269157  0.53600375     0.17800
C3056       C  0.95866884  0.82492562  0.93593679    -0.26200
C3057       C  0.95746582  0.84472164  0.91485283     0.35900
C3058       C  0.98455263  0.87041320  0.90488757    -0.20200
C3059       C  0.51826519  0.87690497  0.91287659    -0.25400
C3060       C  0.52093440  0.85870701  0.93483137     0.27200
H3061       H  0.93786554  0.80489601  0.94261545     0.13000
N3062       N  0.92862253  0.83803870  0.90324229    -0.82700
H3063       H  0.53842981  0.89276756  0.90061855     0.17900
N3064       N  0.54991162  0.86189135  0.94085144    -0.81300
H3065       H  0.91857441  0.81684344  0.89294236     0.33500
H3066       H  0.91504874  0.83674170  0.92154367     0.38000
H3067       H  0.55841251  0.85850062  0.92063271     0.33400
H3068       H  0.56441291  0.88398602  0.94798558     0.30100
H3069       H  0.95122126  0.80947831  0.52846658     0.33500
H3070       H  0.97067962  0.83536328  0.00911314     0.30100
H3071       H  0.54086927  0.76282074  0.97413780     0.38000
H3072       H  0.52762767  0.76384777  0.93982354     0.33500
C3073       C  0.98713197  0.55412642  0.75649062    -0.20300
C3074       C  0.99648216  0.58406605  0.76518098     0.36000
C3075       C  0.99363358  0.60340186  0.74497880    -0.26200
C3076       C  0.98160599  0.59370108  0.71604780     0.02400
C3077       C  0.97381720  0.56445378  0.70644777     0.27200
C3078       C  0.97688437  0.54496619  0.72674332    -0.25400
N3079       N  0.00893338  0.59508848  0.79455477    -0.82700
H3080       H  0.00045413  0.62614238  0.75214493     0.13000
C3081       C  0.97681941  0.61457900  0.69679006     0.02400
N3082       N  0.96172183  0.55430108  0.67668276    -0.81300
H3083       H  0.96993928  0.52216693  0.71975964     0.17800
C3084       C  0.48748050  0.61859796  0.67031560    -0.26200
C3085       C  0.48944114  0.64247579  0.65289190     0.35900
C3086       C  0.97404278  0.66015235  0.66366192    -0.20200
C3087       C  0.95714870  0.64864664  0.69030748    -0.25400
C3088       C  0.95804049  0.62571540  0.70674648     0.27200
H3089       H  0.50054414  0.60815818  0.66387120     0.13000
N3090       N  0.50849561  0.65268440  0.62652751    -0.82700
H3091       H  0.94310938  0.65750782  0.69828254     0.17900
N3092       N  0.94009619  0.61374180  0.73365921    -0.81300
H3093       H  0.52638467  0.67439165  0.63105675     0.33500
H3094       H  0.51818161  0.63927245  0.62256199     0.38000
H3095       H  0.92780529  0.62455537  0.73812355     0.33400
H3096       H  0.92419926  0.59116057  0.72939558     0.30100
H3097       H  0.44538431  0.52476811  0.67695789     0.33500
H3098       H  0.94102573  0.55374731  0.67551417     0.30100
H3099       H  0.99554267  0.60242571  0.80525629     0.38000
H3100       H  0.03064071  0.61371974  0.79179785     0.33500
C3101       C  0.97099158  0.75462487  0.66743849    -0.20300
C3102       C  0.46650781  0.74994986  0.69729678     0.36000
C3103       C  0.46769451  0.77339844  0.71459707    -0.26200
C3104       C  0.97415121  0.80206130  0.70325437     0.02400
C3105       C  0.98725318  0.80816191  0.67414060     0.27200
C3106       C  0.98548091  0.78440495  0.65650456    -0.25400
N3107       N  0.45091926  0.71994646  0.70923465    -0.82700
H3108       H  0.45730797  0.76839237  0.73681918     0.13000
C3109       C  0.97679661  0.82652570  0.72346962     0.02400
N3110       N  0.00242344  0.83846999  0.66270037    -0.81300
H3111       H  0.99612878  0.78933446  0.63443228     0.17800
C3112       C  0.51119840  0.85062454  0.73333289    -0.26200
C3113       C  0.51297600  0.87185097  0.75451770     0.35900
C3114       C  0.98282936  0.87008749  0.76687582    -0.20200
C3115       C  0.95410799  0.84765781  0.75657527    -0.25400
C3116       C  0.95085823  0.82599090  0.73512191     0.27200
H3117       H  0.53189839  0.85210684  0.72513340     0.13000
N3118       N  0.54219079  0.89533213  0.76392214    -0.82700
H3119       H  0.93388470  0.84660357  0.76559374     0.17900
N3120       N  0.92126042  0.80320831  0.72531727    -0.81300
H3121       H  0.55381684  0.88539345  0.77329342     0.33500
H3122       H  0.55395377  0.90715206  0.74459785     0.38000
H3123       H  0.90454056  0.80571517  0.73627349     0.33400
H3124       H  0.91953962  0.80663552  0.70227963     0.30100
H3125       H  0.01096446  0.83924023  0.64102124     0.33500
H3126       H  0.98625777  0.84512185  0.66056630     0.30100
H3127       H  0.46113823  0.71992312  0.72967734     0.38000
H3128       H  0.42855405  0.71414395  0.71378237     0.33500
C3129       C  0.87902066  0.97751689  0.90545593    -0.20300
C3130       C  0.87638664  0.00248761  0.91461321     0.36000
C3131       C  0.85476986  0.99866059  0.93649447    -0.26200
C3132       C  0.83562971  0.97034241  0.94938310     0.02400
C3133       C  0.83899583  0.94566481  0.94141520     0.27200
C3134       C  0.86052800  0.94945337  0.91954453    -0.25400
N3135       N  0.90819059  0.53244445  0.91038476    -0.82700
H3136       H  0.86619818  0.52097911  0.95151545     0.13000
C3137       C  0.81030748  0.96610929  0.96898806     0.02400
N3138       N  0.82008543  0.91672778  0.95519490    -0.81300
H3139       H  0.86248210  0.93012787  0.91319074     0.17800
C3140       C  0.78073786  0.94896010  0.95799421    -0.26200
C3141       C  0.75597329  0.94512844  0.97509101     0.35900
C3142       C  0.76069505  0.95858762  0.00394516    -0.20200
C3143       C  0.79612531  0.98098040  0.51755748    -0.25400
C3144       C  0.81528137  0.97920114  0.99793650     0.27200
H3145       H  0.78418169  0.44729268  0.93798499     0.13000
N3146       N  0.73570124  0.44456428  0.96266521    -0.82700
H3147       H  0.80067582  0.99139808  0.53969995     0.17900
N3148       N  0.85019113  0.99645947  0.51273279    -0.81300
H3149       H  0.72848480  0.42182588  0.95892520     0.33500
H3150       H  0.73734632  0.45467649  0.94170452     0.38000
H3151       H  0.85073210  0.00498272  0.53434789     0.33400
H3152       H  0.85419864  0.98213421  0.01187606     0.30100
H3153       H  0.82518141  0.90080059  0.94663535     0.33500
H3154       H  0.82526278  0.91888122  0.97824457     0.30100
H3155       H  0.92123804  0.54431410  0.92909481     0.38000
H3156       H  0.89731510  0.54368748  0.90236620     0.33500
C3157       C  0.56102888  0.97420026  0.91128541    -0.20300
C3158       C  0.59167229  0.98504496  0.90389395     0.36000
C3159       C  0.60994397  0.97970719  0.92343939    -0.26200
C3160       C  0.59823142  0.96304260  0.95011946     0.02400
C3161       C  0.56763446  0.95235358  0.95783502     0.27200
C3162       C  0.54943352  0.95834043  0.93846459    -0.25400
N3163       N  0.60546686  0.50622010  0.87351917    -0.82700
H3164       H  0.63932152  0.50094570  0.91511135     0.13000
C3165       C  0.61872911  0.95769895  0.96971135     0.02400
N3166       N  0.55505319  0.93510405  0.98498503    -0.81300
H3167       H  0.52581820  0.94960572  0.94404496     0.17800
C3168       C  0.63733520  0.49026634  0.99845784    -0.26200
C3169       C  0.65119999  0.47696368  0.51871681     0.35900
C3170       C  0.67471089  0.97469921  0.50570985    -0.20200
C3171       C  0.65751611  0.94397994  0.97594186    -0.25400
C3172       C  0.63596637  0.94560959  0.95769020     0.27200
H3173       H  0.62536286  0.50125447  0.00675680     0.13000
N3174       N  0.65666396  0.48899906  0.54889655    -0.82700
H3175       H  0.67081593  0.93495619  0.96633741     0.17900
N3176       N  0.63207658  0.93571459  0.92673184    -0.81300
H3177       H  0.64096238  0.49548152  0.55487912     0.33500
H3178       H  0.67787379  0.50865664  0.54893588     0.38000
H3179       H  0.64663053  0.92762923  0.92134958     0.33400
H3180       H  0.61006419  0.91760167  0.92431516     0.30100
H3181       H  0.53228253  0.92889481  0.98727680     0.33500
H3182       H  0.57046867  0.93766716  0.49096433     0.30100
H3183       H  0.62319601  0.52835095  0.87641132     0.38000
H3184       H  0.61398731  0.49423065  0.86207660     0.33500
C3185       C  0.88108962  0.98083778  0.76672312    -0.20300
C3186       C  0.88484196  0.00811889  0.75479624     0.36000
C3187       C  0.86435969  0.00734828  0.73328228    -0.26200
C3188       C  0.84012474  0.97992944  0.72323295     0.02400
C3189       C  0.83692113  0.95266022  0.73392844     0.27200
C3190       C  0.85754857  0.95338870  0.75531293    -0.25400
N3191       N  0.90912053  0.03673175  0.76455789    -0.82700
H3192       H  0.86699788  0.02835125  0.72484480     0.13000
C3193       C  0.81692306  0.98006620  0.70336753     0.02400
N3194       N  0.81218924  0.92434534  0.72370741    -0.81300
H3195       H  0.85452982  0.93228837  0.76373251     0.17800
C3196       C  0.81243179  0.96797924  0.67413667    -0.26200
C3197       C  0.78928659  0.96617626  0.65548545     0.35900
C3198       C  0.77042635  0.97700659  0.66637293    -0.20200
C3199       C  0.77553457  0.98957285  0.69556179    -0.25400
C3200       C  0.79839834  0.99106409  0.71416208     0.27200
H3201       H  0.81430391  0.44646793  0.67362900     0.13000
N3202       N  0.77237148  0.44083275  0.63363870    -0.82700
H3203       H  0.76150067  0.99819715  0.70412584     0.17900
N3204       N  0.80261213  0.00329489  0.74420354    -0.81300
H3205       H  0.78403904  0.42904529  0.63166099     0.33500
H3206       H  0.74963559  0.42468244  0.63721128     0.38000
H3207       H  0.78726274  0.01063221  0.74863224     0.33400
H3208       H  0.79760459  0.98583996  0.75944179     0.30100
H3209       H  0.81315987  0.90636251  0.73358239     0.33500
H3210       H  0.79212056  0.92291300  0.73127974     0.30100
H3211       H  0.92196022  0.04814024  0.74557373     0.38000
H3212       H  0.89982910  0.04916557  0.77347873     0.33500
C3213       C  0.56157660  0.97786715  0.75663468    -0.20300
C3214       C  0.56314680  0.98714499  0.72633360     0.36000
C3215       C  0.58457357  0.98677777  0.70663839    -0.26200
C3216       C  0.60443553  0.97731961  0.71679419     0.02400
C3217       C  0.60255339  0.96757658  0.74688706     0.27200
C3218       C  0.58147900  0.96833530  0.76653584    -0.25400
N3219       N  0.54387158  0.99793984  0.71575675    -0.82700
H3220       H  0.58619998  0.99456656  0.68358121     0.13000
C3221       C  0.62836051  0.97903789  0.69661513     0.02400
N3222       N  0.62193983  0.95666107  0.75725913    -0.81300
H3223       H  0.58027620  0.96088725  0.78967008     0.17800
C3224       C  0.65857335  0.99714609  0.70552602    -0.26200
C3225       C  0.68211547  0.99710209  0.68935681     0.35900
C3226       C  0.67527176  0.97860508  0.66354061    -0.20200
C3227       C  0.64513450  0.96172225  0.65360027    -0.25400
C3228       C  0.62147595  0.96150050  0.67013420     0.27200
H3229       H  0.66226709  0.51290045  0.72437317     0.13000
N3230       N  0.71254107  0.52071975  0.69733229    -0.82700
H3231       H  0.63992273  0.94773724  0.63362367     0.17900
N3232       N  0.59055408  0.94293792  0.66071356    -0.81300
H3233       H  0.71299107  0.53249084  0.71681496     0.33500
H3234       H  0.72310437  0.53677980  0.68026667     0.38000
H3235       H  0.58940474  0.93148087  0.64075087     0.33400
H3236       H  0.57933787  0.92650619  0.67732488     0.30100
H3237       H  0.61773580  0.95038014  0.78001294     0.33500
H3238       H  0.61637709  0.93709232  0.74506331     0.30100
H3239       H  0.53153237  0.98467199  0.69735247     0.38000
H3240       H  0.55757370  0.02004642  0.70810707     0.33500
C3241       C  0.90904246  0.90498264  0.91398275    -0.20300
C3242       C  0.90560552  0.91470694  0.94288314     0.36000
C3243       C  0.88251243  0.89414151  0.96214024    -0.26200
C3244       C  0.86318494  0.86424810  0.95307567     0.02400
C3245       C  0.86741867  0.85434944  0.92473689     0.27200
C3246       C  0.88993198  0.87491818  0.90533326    -0.25400
N3247       N  0.92484870  0.94544447  0.95224138    -0.82700
H3248       H  0.87900966  0.90159841  0.98391982     0.13000
C3249       C  0.83760672  0.84350506  0.97255989     0.02400
N3250       N  0.84876369  0.82336146  0.91582571    -0.81300
H3251       H  0.89275294  0.86730449  0.88334480     0.17800
C3252       C  0.80829648  0.82990691  0.96057314    -0.26200
C3253       C  0.78355112  0.80737055  0.97646671     0.35900
C3254       C  0.78485474  0.80021225  0.50754182    -0.20200
C3255       C  0.81429235  0.81345352  0.51945620    -0.25400
C3256       C  0.84219638  0.83581451  0.00183827     0.27200
H3257       H  0.80488155  0.83651085  0.93832663     0.13000
N3258       N  0.75375599  0.79350473  0.96350034    -0.82700
H3259       H  0.81781310  0.80641898  0.54142044     0.17900
N3260       N  0.87209802  0.84993531  0.01456988    -0.81300
H3261       H  0.75436643  0.80242686  0.94210238     0.33500
H3262       H  0.74056202  0.79901681  0.97720994     0.38000
H3263       H  0.86890917  0.83796349  0.53605718     0.33400
H3264       H  0.88505586  0.84369860  0.00138282     0.30100
H3265       H  0.85472550  0.81979457  0.89422947     0.33500
H3266       H  0.85320845  0.81025301  0.93069322     0.30100
H3267       H  0.92051969  0.95911690  0.93808326     0.38000
H3268       H  0.91933540  0.94871086  0.97415520     0.33500
C3269       C  0.69493204  0.69997614  0.00286662    -0.20300
C3270       C  0.67928191  0.66984763  0.01336778     0.36000
C3271       C  0.65764971  0.64705182  0.99457300    -0.26200
C3272       C  0.65172221  0.65372767  0.96553160     0.02400
C3273       C  0.66737399  0.68367392  0.95502707     0.27200
C3274       C  0.68857298  0.70643603  0.97384089    -0.25400
N3275       N  0.66391379  0.67181230  0.55038639    -0.82700
H3276       H  0.64552718  0.62393213  0.00243354     0.13000
C3277       C  0.62925662  0.62934589  0.94594378     0.02400
N3278       N  0.66191164  0.69076492  0.92508856    -0.81300
H3279       H  0.70035332  0.72942441  0.96561009     0.17800
C3280       C  0.60405282  0.63081275  0.93609400    -0.26200
C3281       C  0.58399639  0.61030716  0.91484545     0.35900
C3282       C  0.58879288  0.58726813  0.90335395    -0.20200
C3283       C  0.61340253  0.58506205  0.91448489    -0.25400
C3284       C  0.63387681  0.60608242  0.93535758     0.27200
H3285       H  0.60037984  0.64860750  0.94436111     0.13000
N3286       N  0.55922406  0.61356148  0.90468844    -0.82700
H3287       H  0.61736440  0.56750413  0.90617916     0.17900
N3288       N  0.65983246  0.60447491  0.94510481    -0.81300
H3289       H  0.56800557  0.63501526  0.89522604     0.33500
H3290       H  0.54637918  0.61232971  0.92356888     0.38000
H3291       H  0.65988508  0.58596760  0.93529093     0.33400
H3292       H  0.66833442  0.61844664  0.45432232     0.30100
H3293       H  0.67513098  0.71388339  0.92089141     0.33500
H3294       H  0.66895243  0.68004159  0.90970558     0.30100
H3295       H  0.68221844  0.66927073  0.55659786     0.38000
H3296       H  0.67195202  0.63931212  0.04697306     0.33500
C3297       C  0.90889748  0.90235678  0.75928286    -0.20300
C3298       C  0.87824721  0.88403113  0.76784205     0.36000
C3299       C  0.85756669  0.86274171  0.74761026    -0.26200
C3300       C  0.86678050  0.85835820  0.71915185     0.02400
C3301       C  0.89736909  0.87643373  0.71039011     0.27200
C3302       C  0.91806483  0.89864710  0.73039374    -0.25400
N3303       N  0.86787629  0.88683248  0.79714145    -0.82700
H3304       H  0.83405547  0.84923484  0.75436279     0.13000
C3305       C  0.84380998  0.83446440  0.69927085     0.02400
N3306       N  0.90738546  0.87166291  0.68161325    -0.81300
H3307       H  0.94160384  0.91233110  0.72385022     0.17800
C3308       C  0.83803880  0.84198306  0.67056491    -0.26200
C3309       C  0.81436107  0.82047806  0.65243474     0.35900
C3310       C  0.79551499  0.79087966  0.66373150    -0.20200
C3311       C  0.80214919  0.78332551  0.69210889    -0.25400
C3312       C  0.82615114  0.80462657  0.70980102     0.27200
H3313       H  0.85162682  0.86495513  0.66258613     0.13000
N3314       N  0.80888317  0.82908313  0.62325323    -0.82700
H3315       H  0.78839378  0.76063495  0.70074479     0.17900
N3316       N  0.83245033  0.79619468  0.73869182    -0.81300
H3317       H  0.82320697  0.85216369  0.61961503     0.33500
H3318       H  0.81488160  0.81821948  0.60699162     0.38000
H3319       H  0.81728685  0.77346900  0.74324880     0.33400
H3320       H  0.85395305  0.79857946  0.73742719     0.30100
H3321       H  0.93052230  0.88672580  0.67867473     0.33500
H3322       H  0.90461315  0.85005542  0.68185444     0.30100
H3323       H  0.85894411  0.86605106  0.80812100     0.38000
H3324       H  0.85034882  0.89148548  0.79431470     0.33500
C3325       C  0.69542437  0.69860338  0.66751004    -0.20300
C3326       C  0.67064724  0.67264472  0.65445911     0.36000
C3327       C  0.64814672  0.65071291  0.67335015    -0.26200
C3328       C  0.65026769  0.65374707  0.70482626     0.02400
C3329       C  0.67481683  0.67926722  0.71793318     0.27200
C3330       C  0.69701022  0.70139654  0.69924262    -0.25400
N3331       N  0.66860125  0.66813576  0.62229811    -0.82700
H3332       H  0.62931256  0.63070797  0.66357719     0.13000
C3333       C  0.62782040  0.62927506  0.72424376     0.02400
N3334       N  0.67716255  0.68242400  0.75028590    -0.81300
H3335       H  0.71564589  0.72100392  0.70974096     0.17800
C3336       C  0.63679799  0.61140438  0.73978265    -0.26200
C3337       C  0.61767238  0.58998305  0.76090910     0.35900
C3338       C  0.58865046  0.58610800  0.76670017    -0.20200
C3339       C  0.57931735  0.60341446  0.75014055    -0.25400
C3340       C  0.59871848  0.62508590  0.72904165     0.27200
H3341       H  0.65923923  0.61471370  0.73606549     0.13000
N3342       N  0.62842452  0.57305506  0.77707654    -0.82700
H3343       H  0.55708726  0.60051156  0.75407188     0.17900
N3344       N  0.58929239  0.64326896  0.71297174    -0.81300
H3345       H  0.63378200  0.56122285  0.76135067     0.33500
H3346       H  0.64827277  0.58820768  0.78841628     0.38000
H3347       H  0.56715606  0.63725438  0.71896253     0.33400
H3348       H  0.60315482  0.66559758  0.71990041     0.30100
H3349       H  0.69677877  0.70233315  0.75641931     0.33500
H3350       H  0.65887069  0.68439131  0.75793270     0.30100
H3351       H  0.68637442  0.66480755  0.61578351     0.38000
H3352       H  0.64862045  0.64840700  0.61655396     0.33500
loop_ 
_geom_bond_atom_site_label_1 
_geom_bond_atom_site_label_2 
_geom_bond_distance 
_geom_bond_site_symmetry_2 
_ccdc_geom_bond_type 
C1            N2   1.360       .  A
C1            N6   1.359       .  A
C1          C392   1.488       .  S
N2            C3   1.358       .  A
C3            N4   1.358       .  A
C3           C11   1.466       .  S
N4            C5   1.355       .  A
C5            N6   1.356       .  A
C5          C377   1.476       .  S
C7            N8   1.355       .  A
C7           N12   1.361       .  A
C7          C755   1.482       .  S
N8            C9   1.353       .  A
C9           N10   1.354       .  A
C9          C321   1.474       .  S
N10          C11   1.358       .  A
C11          N12   1.362       .  A
C13          N14   1.360       .  A
C13          N18   1.359       .  A
C13         C265   1.488       .  S
N14          C15   1.361       .  A
C15          N16   1.359       .  A
C15          C21   1.470       .  S
N16          C17   1.357       .  A
C17          N18   1.358       .  A
C17         C293   1.479       .  S
C19          N20   1.359       .  A
C19          N24   1.360       .  A
C19         C628   1.485       .  S
N20          C21   1.358       .  A
C21          N22   1.358       .  A
N22          C23   1.358       .  A
C23          N24   1.361       .  A
C23         C237   1.491       .  S
C25          N26   1.358       .  A
C25          N30   1.363       .  A
C25         C168   1.485       .  S
N26          C27   1.356       .  A
C27          N28   1.355       .  A
C27         C153   1.481       .  S
N28          C29   1.359       .  A
C29          N30   1.363       .  A
C29          C33   1.471       .  S
C31          N32   1.362       .  A
C31          N36   1.360       .  A
C31         C531   1.488       .  S
N32          C33   1.360       .  A
C33          N34   1.359       .  A
N34          C35   1.356       .  A
C35          N36   1.358       .  A
C35          C97   1.487       .  S
O37         Mn63   2.094       .  S
O37        C1740   1.273   1_455  A
C38         C405   1.488       .  S
C38          O71   1.272       .  A
C38          O68   1.270       .  A
O39         Mn46   2.168       .  S
O39         Mn57   2.117       .  S
O39         Mn61   2.162       .  S
O39       Mn1739   2.136       .  S
O40         Mn74   2.106       .  S
O40          C50   1.275       .  A
O41         Mn57   2.100       .  S
O41          C64   1.273       .  A
O42         Mn61   2.093       .  S
O42          C69   1.251       .  A
O43         Mn63   1.957       .  S
O43        Mn912   1.961       .  S
O43          C59   1.217       .  S
C44          C84   1.481       .  S
C44          O47   1.251       .  A
C44          O70   1.219       .  S
O45         Mn46   2.161       .  S
O45         Mn79   2.131       .  S
O45         Mn61   2.163       .  S
O45        Mn903   2.115       .  S
Mn46         O51   2.099       .  S
Mn46        O913   2.120       .  S
Mn46       O1754   2.087       .  S
Mn46       O2566   2.159       .  S
O47        Mn899   2.090   1_545  S
O48         Mn55   2.076       .  S
O48          C50   1.268       .  A
C49         C140   1.485       .  S
C49          O75   1.254       .  A
C49          O62   1.217       .  S
C50         C349   1.493       .  S
O51          C76   1.253       .  A
O52         Mn55   2.117       .  S
O52         Mn74   2.121       .  S
O52       Mn2560   2.156   1_445  S
O52       Mn2575   2.158   1_445  S
O53         Mn57   1.966       .  S
O53         Mn79   1.955       .  S
O53          C76   1.217       .  S
C54         C196   1.494       .  S
C54          O56   1.272       .  A
C54         O918   1.273       .  A
Mn55         O68   2.077       .  S
Mn55       O1746   1.954   1_455  S
Mn55       O1738   1.953   1_455  S
O56         Mn79   2.091       .  S
Mn57         O73   2.104       .  S
Mn57         O67   1.971       .  S
O58         Mn63   2.094       .  S
O58        C1736   1.271   1_455  A
C59         C224   1.483       .  S
C59          O77   1.253       .  A
C60         C181   1.493       .  S
C60          O73   1.275       .  A
C60        O1734   1.270       .  A
Mn61        O885   2.100       .  S
Mn61       O1753   2.100       .  S
Mn61       O2566   2.159       .  S
O62         Mn65   1.963       .  S
O62       Mn1731   1.951       .  S
Mn63       O1715   2.122   1_455  S
Mn63         O81   1.956       .  S
C64         C125   1.493       .  S
C64        O1713   1.272       .  A
Mn65         O72   2.095       .  S
Mn65         O80   2.104       .  S
Mn65        O883   2.126   1_545  S
Mn65         O70   1.961       .  S
C66         C252   1.498       .  S
C66          O82   1.272       .  A
C66         O910   1.273       .  A
O67         Mn79   1.956       .  S
O67          C69   1.220       .  S
C69         C308   1.484       .  S
O70       Mn1731   1.962       .  S
O71         Mn74   2.096       .  S
O72         C904   1.272   1_545  A
Mn74        O881   1.963   1_545  S
Mn74        O919   1.966   1_545  S
O75        Mn884   2.114   1_545  S
C76         C364   1.475       .  S
O77       Mn1737   2.110   1_455  S
O78       Mn1722   2.103   1_455  S
O78          C83   1.253       .  A
Mn79         O82   2.100       .  S
O80         C892   1.273   1_545  A
O81        Mn912   1.967       .  S
O81          C83   1.219       .  S
C83         C280   1.486       .  S
C84          C85   1.413       .  A
C84        C1765   1.407       .  A
C85          C86   1.396       .  A
C85          N90   1.433       .  S
C86          C87   1.399       .  A
C86          H91   1.084       .  S
C87          C92   1.477       .  S
C87        C1764   1.409       .  A
C88          C89   1.412   1_455  A
C88        C1763   1.413   1_455  A
C88          N93   1.437       .  S
C89        C1760   1.408       .  A
C89          H94   1.083   1_655  S
N90         H110   1.046       .  S
N90         H111   1.045       .  S
C92          C95   1.400       .  A
C92          C99   1.409       .  A
N93         H108   1.045       .  S
N93         H109   1.046       .  S
C95         C515   1.405       .  A
C95         H519   1.084       .  S
C96          C97   1.414       .  A
C96         C514   1.407       .  A
C96         N101   1.432       .  S
C97         C517   1.405   1_554  A
C98          C99   1.401       .  A
C98         C516   1.402       .  A
C98         H102   1.084       .  S
C99         N103   1.437       .  S
H100        C514   1.084       .  S
N101        H104   1.046       .  S
N101        H105   1.046       .  S
N103        H106   1.046       .  S
N103        H107   1.045       .  S
C112        C450   1.492       .  S
C112        C113   1.420       .  A
C112        C536   1.408       .  A
C113        C114   1.404       .  A
C113       N1794   1.439       .  S
C114        C115   1.398       .  A
C114       H1795   1.084       .  S
C115        C120   1.481       .  S
C115        C116   1.408       .  A
C116        C536   1.411       .  A
C116        N121   1.437       .  S
C117        C531   1.407       .  A
C117        C535   1.409   1_554  A
C117        H122   1.083       .  S
N118       C1789   1.438       .  S
N118        H138   1.046       .  S
N118        H139   1.046       .  S
H119       C1790   1.084       .  S
C120        C123   1.398       .  A
C120       C1803   1.408       .  A
N121        H137   1.045       .  S
N121        H555   1.046       .  S
C123        C124   1.406       .  A
C123        H128   1.084       .  S
C124        C125   1.417       .  A
C124        N129   1.435       .  S
C125       C1802   1.409       .  A
C126        C127   1.407       .  A
C126       C1801   1.410   1_455  A
C126        H130   1.083       .  S
C127       C1796   1.411   1_455  A
C127        N131   1.438       .  S
N129        H132   1.046       .  S
N129        H133   1.045       .  S
N131        H134   1.044       .  S
N131        H135   1.046       .  S
H136        N540   1.046       .  S
C140        C141   1.415       .  A
C140        C145   1.406       .  A
C141        C142   1.398       .  A
C141        N146   1.433       .  S
C142        C143   1.400       .  A
C142        H147   1.084       .  S
C143        C148   1.484       .  S
C143        C144   1.409       .  A
C144        C145   1.409       .  A
C144        N149   1.432       .  S
C145        H150   1.084       .  S
N146        H166   1.046       .  S
N146        H167   1.045       .  S
C148        C155   1.409       .  A
C148       C1827   1.403       .  A
N149        H165   1.046       .  S
N149       H1840   1.046       .  S
C151        C152   1.410       .  A
C151       C1824   1.403       .  A
C151        H156   1.084   1_655  S
C152       C1829   1.419       .  A
C152        N157   1.438   1_655  S
C153        C154   1.406       .  A
C153       C1828   1.411       .  A
C154        C155   1.406       .  A
C154        H158   1.084       .  S
C155        N159   1.432       .  S
N157        H160   1.046       .  S
N157        H161   1.045   1_455  S
N159        H162   1.046       .  S
N159        H163   1.046       .  S
H164       N1825   1.045       .  S
C168        C173   1.407       .  A
C168       C1845   1.412       .  A
C169        C170   1.401       .  A
C169       C1844   1.412       .  A
C169        N174   1.433       .  S
C170       C1847   1.401       .  A
C170        H175   1.084       .  S
C171        C176   1.484       .  S
C171        C172   1.411       .  A
C171       C1846   1.400       .  A
C172        C173   1.411       .  A
C172        N177   1.437       .  S
C173        H178   1.083       .  S
N174        H194   1.046       .  S
N174        H195   1.046       .  S
C176        C183   1.408       .  A
C176       C1855   1.401       .  A
N177        H192   1.046       .  S
N177        H193   1.046       .  S
C179        C180   1.402       .  A
C179       C1852   1.400   1_455  A
C179        H184   1.084       .  S
C180       C1857   1.415   1_455  A
C180        N185   1.432       .  S
C181        C182   1.406       .  A
C181       C1856   1.418       .  A
C182        C183   1.404       .  A
C182        H186   1.080       .  S
C183        N187   1.438       .  S
N185        H188   1.046       .  S
N185        H189   1.045       .  S
N187        H190   1.046       .  S
N187        H191   1.046       .  S
C196        C197   1.416       .  A
C196        C201   1.409       .  A
C197        C198   1.404       .  A
C197       N1040   1.431       .  S
C198        C199   1.401       .  A
C198       H1041   1.084       .  S
C199        C204   1.487       .  S
C199        C200   1.411       .  A
C200        C201   1.406       .  A
C200        N205   1.438       .  S
C201        H206   1.083       .  S
N202       C1035   1.432       .  S
N202        H222   1.046       .  S
N202        H223   1.046       .  S
H203       C1036   1.084   1_545  S
C204        C207   1.401       .  A
C204        C211   1.411       .  A
N205        H220   1.046       .  S
N205        H221   1.046       .  S
C207        C208   1.403       .  A
C207       H1050   1.084       .  S
C208        C209   1.416       .  A
C208       N1051   1.438       .  S
C209        C438   1.488       .  S
C209        C629   1.408       .  A
C210        C628   1.406       .  A
C210        C630   1.408       .  A
C210        H214   1.083       .  S
C211        C629   1.410       .  A
C211        N634   1.437       .  S
H212       C1045   1.084       .  S
N213       C1046   1.433       .  S
N213        H216   1.046       .  S
N213        H217   1.046       .  S
N215        C630   1.437       .  S
N215        H218   1.046       .  S
N215        H638   1.046       .  S
H219        N634   1.046       .  S
C224        C225   1.412       .  A
C224        C229   1.406       .  A
C225        C226   1.398       .  A
C225       N1068   1.433       .  S
C226        C227   1.402       .  A
C226       H1069   1.084       .  S
C227        C232   1.491       .  S
C227        C228   1.415       .  A
C228        C229   1.412       .  A
C228        N233   1.437       .  S
C229        H234   1.084       .  S
N230       C1063   1.433       .  S
N230        H250   1.046   1_565  S
N230        H251   1.046       .  S
H231       C1064   1.084       .  S
C232        C239   1.412       .  A
C232       C1073   1.403       .  A
N233        H248   1.046       .  S
N233        H668   1.045       .  S
C235       C1070   1.403       .  A
C235        C655   1.406       .  A
C235        H240   1.083       .  S
C236        C654   1.406       .  A
C236       C1075   1.416       .  A
C236        N241   1.432       .  S
C237       C1074   1.419       .  A
C237        C657   1.405   1_554  A
C238        C239   1.403       .  A
C238        C656   1.406       .  A
C238        H242   1.083       .  S
C239        N243   1.438       .  S
N241        H244   1.046       .  S
N241        H245   1.046       .  S
N243        H246   1.046       .  S
N243        H247   1.044       .  S
H249        N652   1.045       .  S
C252        C253   1.418       .  A
C252        C257   1.410       .  A
C253        C254   1.405       .  A
C253        N258   1.435       .  S
C254        C255   1.400       .  A
C254        H259   1.084       .  S
C255        C260   1.487       .  S
C255        C256   1.410       .  A
C256        C257   1.410       .  A
C256        N261   1.438       .  S
C257        H262   1.083       .  S
N258        H278   1.044       .  S
N258        H279   1.046       .  S
C260        C263   1.403       .  A
C260        C267   1.411       .  A
N261        H276   1.046       .  S
N261        H277   1.046       .  S
C263        C264   1.407       .  A
C263       H1106   1.084       .  S
C264        C265   1.414       .  A
C264       N1107   1.432       .  S
C265        C266   1.406       .  A
C266        C267   1.405       .  A
C266        H270   1.084       .  S
C267        N271   1.438       .  S
H268       C1101   1.084       .  S
N269       C1102   1.437       .  S
N269        H272   1.046       .  S
N269        H273   1.046       .  S
N271        H274   1.046       .  S
N271        H275   1.046       .  S
C280        C281   1.412       .  A
C280        C285   1.407       .  A
C281        C282   1.407       .  A
C281        N286   1.432       .  S
C282        C283   1.404       .  A
C282        H287   1.084       .  S
C283        C288   1.483       .  S
C283        C284   1.408       .  A
C284        C285   1.401       .  A
C284        N289   1.438       .  S
C285        H290   1.083       .  S
N286        H306   1.046       .  S
N286        H307   1.046       .  S
C288        C291   1.402       .  A
C288        C295   1.410       .  A
N289        H304   1.046       .  S
N289        H305   1.046       .  S
C291        C292   1.403       .  A
C291       H1134   1.084       .  S
C292        C293   1.411       .  A
C292       N1135   1.438       .  S
C293        C294   1.406       .  A
C294        C295   1.409       .  A
C294        H298   1.084       .  S
C295        N299   1.438       .  S
H296       C1129   1.084   1_545  S
N297       C1130   1.438   1_545  S
N297        H300   1.046       .  S
N297        H301   1.046       .  S
N299        H302   1.046       .  S
N299        H303   1.046       .  S
C308        C309   1.416       .  A
C308        C313   1.406       .  A
C309        C310   1.408       .  A
C309        N314   1.438       .  S
C310        C311   1.402       .  A
C310        H315   1.084       .  S
C311        C316   1.482       .  S
C311        C312   1.408       .  A
C312        C313   1.400       .  A
C312        N317   1.438       .  S
C313        H318   1.084       .  S
N314        H334   1.046       .  S
N314        H335   1.046       .  S
C316        C319   1.401       .  A
C316        C323   1.410       .  A
N317        H332   1.046       .  S
N317        H333   1.046       .  S
C319        C320   1.403       .  A
C319        H324   1.084       .  S
C320        C740   1.413       .  A
C320        N325   1.438       .  S
C321        C322   1.404       .  A
C321        C739   1.412   1_554  A
C322        C742   1.405       .  A
C322        H326   1.084       .  S
C323        C741   1.407       .  A
C323        N327   1.438       .  S
N325        H328   1.046       .  S
N325        H329   1.046       .  S
N327        H331   1.046       .  S
N327        H749   1.046       .  S
H330        N746   1.046       .  S
C336        C426   1.490       .  S
C336        C337   1.419       .  A
C336        C341   1.408       .  A
C337        C338   1.409       .  A
C337        N761   1.437       .  S
C338        C339   1.401       .  A
C338        H343   1.084       .  S
C339        C344   1.479       .  S
C339        C340   1.407       .  A
C340        C341   1.401       .  A
C340        N345   1.439       .  S
C341        H346   1.083       .  S
N342        C756   1.437       .  S
N342        H362   1.046       .  S
N342        H782   1.046       .  S
C344        C347   1.397       .  A
C344        C351   1.409       .  A
N345        H360   1.046       .  S
N345        H361   1.046       .  S
C347        C348   1.399       .  A
C347        H352   1.084       .  S
C348        C349   1.419       .  A
C348        N353   1.433       .  S
C349        C350   1.409       .  A
C350        C351   1.408       .  A
C350        H354   1.083       .  S
C351        N355   1.438       .  S
N353        H356   1.046       .  S
N353        H357   1.044       .  S
N355        H358   1.046       .  S
N355        H778   1.046       .  S
H359        N774   1.046       .  S
H363        N761   1.046       .  S
C364        C365   1.412       .  A
C364        C369   1.405       .  A
C365        C366   1.398       .  A
C365        N370   1.433       .  S
C366        C367   1.398       .  A
C366        H371   1.084       .  S
C367        C372   1.473       .  S
C367        C368   1.409       .  A
C368        C369   1.407       .  A
C368        N373   1.438       .  S
C369        H374   1.084       .  S
N370        H390   1.045       .  S
N370        H391   1.046       .  S
C372        C375   1.400       .  A
C372        C379   1.408       .  A
N373        H388   1.046       .  S
N373        H389   1.044       .  S
C375        C376   1.405       .  A
C375        H380   1.084       .  S
C376        C377   1.413       .  A
C376        N381   1.438       .  S
C377        C378   1.404       .  A
C378        C379   1.404       .  A
C378        H382   1.084       .  S
C379        N383   1.438       .  S
N381        H384   1.046       .  S
N381        H385   1.046       .  S
N383        H386   1.046       .  S
N383        H387   1.045       .  S
C392        C393   1.416       .  A
C392        C397   1.408       .  A
C393        C394   1.404       .  A
C393        N398   1.432       .  S
C394        C395   1.398       .  A
C394        H399   1.084       .  S
C395        C400   1.472       .  S
C395        C396   1.406       .  A
C396        C397   1.401       .  A
C396        N401   1.439       .  S
C397        H402   1.083       .  S
N398        H418   1.046       .  S
N398        H419   1.046       .  S
C400        C403   1.398       .  A
C400        C407   1.405       .  A
N401        H416   1.046       .  S
N401        H417   1.045       .  S
C403        C404   1.402       .  A
C403        H408   1.084       .  S
C404        C405   1.415       .  A
C404        N409   1.432       .  S
C405        C406   1.410       .  A
C406        C407   1.403       .  A
C406        H410   1.082       .  S
C407        N411   1.438       .  S
N409        H412   1.045       .  S
N409        H413   1.045       .  S
N411        H414   1.046       .  S
N411        H415   1.045       .  S
C420        N421   1.361       .  A
C420        N425   1.360       .  A
C420        C811   1.495       .  S
N421        C422   1.360       .  A
C422        N423   1.356       .  A
C422        C430   1.467       .  S
N423        C424   1.354       .  A
C424        N425   1.358       .  A
C424        C796   1.484       .  S
C426        N427   1.358       .  A
C426        N431   1.360       .  A
N427        C428   1.356       .  A
C428        N429   1.356       .  A
C428        C740   1.481       .  S
N429        C430   1.360       .  A
C430        N431   1.359       .  A
C432        N433   1.362       .  A
C432        N437   1.360       .  A
C432        C684   1.495       .  S
N433        C434   1.361       .  A
C434        N435   1.358       .  A
C434        C440   1.468       .  S
N435        C436   1.354       .  A
C436        N437   1.356       .  A
C436        C712   1.481       .  S
C438        N439   1.361       .  A
C438        N443   1.360       .  A
N439        C440   1.360       .  A
C440        N441   1.358       .  A
N441        C442   1.356       .  A
C442        N443   1.358       .  A
C442        C656   1.493       .  S
C444        N445   1.360       .  A
C444        N449   1.362       .  A
C444        C587   1.482       .  S
N445        C446   1.357       .  A
C446        N447   1.355       .  A
C446        C572   1.486       .  S
N447        C448   1.360       .  A
C448        N449   1.359       .  A
C448        C452   1.470       .  S
C450        N451   1.366       .  A
C450        N455   1.359       .  A
N451        C452   1.365       .  A
C452        N453   1.354       .  A
N453        C454   1.350       .  A
C454        N455   1.355       .  A
C454        C516   1.475       .  S
O456       Mn482   2.099       .  S
O456       C2159   1.273   1_455  A
C457        C824   1.494       .  S
C457        O490   1.272       .  A
C457        O487   1.273       .  A
O458       Mn465   2.168       .  S
O458       Mn476   2.122       .  S
O458       Mn480   2.170       .  S
O458      Mn2158   2.125       .  S
O459       Mn493   2.105       .  S
O459        C469   1.275       .  A
O460       Mn476   2.101       .  S
O460        C483   1.273       .  A
O461       Mn480   2.090       .  S
O461        C488   1.251       .  A
O462      Mn1331   1.962       .  S
O462       Mn482   1.961       .  S
O462        C478   1.219       .  S
C463        C503   1.490       .  S
C463        O466   1.254       .  A
C463        O489   1.219       .  S
O464      Mn1322   2.121       .  S
O464       Mn465   2.158       .  S
O464       Mn498   2.123       .  S
O464       Mn480   2.164       .  S
Mn465      O1332   2.105       .  S
Mn465       O470   2.101       .  S
Mn465      O2173   2.092       .  S
Mn465      O2985   2.158       .  S
O466      Mn1318   2.110   1_545  S
O467       Mn474   2.082       .  S
O467        C469   1.269       .  A
C468        C559   1.492       .  S
C468        O494   1.254       .  A
C468        O481   1.217       .  S
C469        C768   1.494       .  S
O470        C495   1.251       .  A
O471      Mn2979   2.165   1_445  S
O471       Mn474   2.122       .  S
O471       Mn493   2.122       .  S
O471      Mn2994   2.156   1_445  S
O472       Mn476   1.957       .  S
O472       Mn498   1.955       .  S
O472        C495   1.217       .  S
C473        C615   1.496       .  S
C473       O1337   1.274       .  A
C473        O475   1.270       .  A
Mn474       O487   2.094       .  S
Mn474      O2165   1.963   1_455  S
Mn474      O2157   1.953   1_455  S
O475       Mn498   2.084       .  S
Mn476       O492   2.094       .  S
Mn476       O486   1.963       .  S
O477       Mn482   2.098       .  S
O477       C2155   1.272   1_455  A
C478        C643   1.481       .  S
C478        O496   1.251       .  A
C479        C600   1.492       .  S
C479       O2153   1.271       .  A
C479        O492   1.272       .  A
Mn480      O1304   2.120       .  S
Mn480      O2172   2.103       .  S
Mn480      O2985   2.159       .  S
O481      Mn2150   1.947       .  S
O481       Mn484   1.959       .  S
Mn482      O2134   2.125   1_455  S
Mn482       O500   1.962       .  S
C483        C544   1.497       .  S
C483       O2132   1.272       .  A
Mn484       O491   2.082   1_545  S
Mn484       O499   2.101   1_545  S
Mn484      O1302   2.120   1_545  S
Mn484       O489   1.966       .  S
C485        C671   1.495       .  S
C485       O1329   1.270       .  A
C485        O501   1.273       .  A
O486       Mn498   1.958       .  S
O486        C488   1.219       .  S
C488        C727   1.477       .  S
O489      Mn2150   1.962       .  S
O490       Mn493   2.094       .  S
O491       C1323   1.269       .  A
Mn493      O1300   1.967   1_545  S
Mn493      O1338   1.963   1_545  S
O494      Mn1303   2.118   1_545  S
C495        C783   1.480       .  S
O496      Mn2156   2.096   1_455  S
O497      Mn2141   2.091   1_455  S
O497        C502   1.251       .  A
Mn498       O501   2.100       .  S
O499       C1311   1.273       .  A
O500      Mn1331   1.966       .  S
O500        C502   1.222       .  S
C502        C699   1.483       .  S
C503        C504   1.414       .  A
C503       C2184   1.408       .  A
C504        C505   1.399       .  A
C504        N509   1.432       .  S
C505        C506   1.400       .  A
C505        H510   1.084       .  S
C506        C511   1.489       .  S
C506       C2183   1.412       .  A
C507       C2182   1.411       .  A
C507        C508   1.411       .  A
C507        N512   1.437   1_655  S
C508       C2179   1.408       .  A
C508        H513   1.083       .  S
N509        H529   1.045       .  S
N509        H530   1.045       .  S
C511        C514   1.403   1_556  A
C511        C518   1.410       .  A
N512        H527   1.045       .  S
N512        H528   1.046       .  S
C515        C516   1.416       .  A
C515        N520   1.438       .  S
C517        C518   1.403       .  A
C517        H521   1.084       .  S
C518        N522   1.433       .  S
N520        H523   1.046       .  S
N520        H524   1.045       .  S
N522        H525   1.046       .  S
N522        H526   1.046       .  S
C531        C532   1.413   1_554  A
C532        C533   1.401       .  A
C532       N2213   1.433       .  S
C533        C534   1.402       .  A
C533       H2214   1.084       .  S
C534        C539   1.489       .  S
C534        C535   1.412       .  A
C535        N540   1.438   1_556  S
C536        H541   1.083       .  S
N537       C2208   1.438       .  S
N537        H557   1.046       .  S
N537        H558   1.046       .  S
H538       C2209   1.083       .  S
C539        C542   1.402       .  A
C539       C2222   1.408       .  A
N540        H556   1.046       .  S
C542        C543   1.408       .  A
C542        H547   1.084       .  S
C543        C544   1.419       .  A
C543        N548   1.436       .  S
C544       C2221   1.410       .  A
C545       C2220   1.409   1_455  A
C545        C546   1.405       .  A
C545        H549   1.084       .  S
C546       C2215   1.409   1_455  A
C546        N550   1.432       .  S
N548        H551   1.046       .  S
N548        H552   1.045       .  S
N550        H553   1.045       .  S
N550        H554   1.044       .  S
C559        C560   1.416       .  A
C559        C564   1.407       .  A
C560        C561   1.399       .  A
C560        N565   1.433       .  S
C561        C562   1.399       .  A
C561        H566   1.084       .  S
C562        C567   1.489       .  S
C562        C563   1.412       .  A
C563        C564   1.413       .  A
C563        N568   1.437       .  S
C564        H569   1.083       .  S
N565        H585   1.046       .  S
N565        H586   1.046       .  S
C567       C2246   1.403       .  A
C567        C574   1.411       .  A
N568       H2259   1.046       .  S
N568        H584   1.046       .  S
C570       C2243   1.402       .  A
C570        C571   1.404       .  A
C570        H575   1.084   1_655  S
C571       C2248   1.415       .  A
C571        N576   1.432   1_655  S
C572       C2247   1.415       .  A
C572        C573   1.404       .  A
C573        C574   1.405       .  A
C573        H577   1.084       .  S
C574        N578   1.438       .  S
N576        H579   1.046       .  S
N576        H580   1.046       .  S
N578        H581   1.046       .  S
N578        H582   1.046       .  S
H583       N2244   1.045       .  S
C587       C2264   1.411       .  A
C587        C592   1.406       .  A
C588       C2263   1.412       .  A
C588        C589   1.403       .  A
C588        N593   1.433       .  S
C589       C2266   1.403       .  A
C589        H594   1.084       .  S
C590        C595   1.484       .  S
C590       C2265   1.402       .  A
C590        C591   1.411       .  A
C591        C592   1.409       .  A
C591        N596   1.437       .  S
C592        H597   1.083       .  S
N593        H613   1.046       .  S
N593        H614   1.046       .  S
C595       C2274   1.401       .  A
C595        C602   1.408       .  A
N596        H611   1.046       .  S
N596        H612   1.046       .  S
C598       C2271   1.401   1_455  A
C598        C599   1.404       .  A
C598        H603   1.084       .  S
C599       C2276   1.417   1_455  A
C599        N604   1.432       .  S
C600       C2275   1.416       .  A
C600        C601   1.408       .  A
C601        C602   1.406       .  A
C601        H605   1.083       .  S
C602        N606   1.437       .  S
N604        H607   1.045       .  S
N604        H608   1.045       .  S
N606        H609   1.044       .  S
N606        H610   1.045       .  S
C615        C616   1.415       .  A
C615        C620   1.411       .  A
C616        C617   1.406       .  A
C616       N1459   1.432       .  S
C617        C618   1.404       .  A
C617       H1460   1.084       .  S
C618        C623   1.489       .  S
C618        C619   1.409       .  A
C619        C620   1.406       .  A
C619        N624   1.438       .  S
C620        H625   1.083       .  S
N621       C1454   1.432   1_545  S
N621        H641   1.046       .  S
N621        H642   1.046       .  S
H622       C1455   1.084   1_545  S
C623        C626   1.404       .  A
C623        C630   1.411   1_556  A
N624        H639   1.045       .  S
N624        H640   1.046       .  S
C626        C627   1.404       .  A
C626       H1469   1.084       .  S
C627        C628   1.410   1_556  A
C627       N1470   1.433       .  S
C629        H633   1.083       .  S
H631       C1464   1.084       .  S
N632       C1465   1.438       .  S
N632        H635   1.046       .  S
N632        H636   1.046       .  S
N634        H637   1.046       .  S
C643        C644   1.411       .  A
C643        C648   1.406       .  A
C644        C645   1.398       .  A
C644       N1487   1.433       .  S
C645        C646   1.402       .  A
C645       H1488   1.084       .  S
C646        C651   1.488       .  S
C646        C647   1.414       .  A
C647        C648   1.409       .  A
C647        N652   1.438       .  S
C648        H653   1.084       .  S
N649       C1482   1.433   1_545  S
N649        H669   1.045       .  S
N649        H670   1.046   1_545  S
H650       C1483   1.084       .  S
C651       C1492   1.402   1_556  A
C651        C658   1.412       .  A
N652        H667   1.045       .  S
C654       C1489   1.403   1_554  A
C654        H659   1.084       .  S
C655       C1494   1.416       .  A
C655        N660   1.438       .  S
C656       C1493   1.419       .  A
C657        C658   1.404       .  A
C657        H661   1.083       .  S
C658        N662   1.439       .  S
N660        H663   1.046       .  S
N660        H664   1.046   1_565  S
N662        H665   1.045       .  S
N662        H666   1.044       .  S
C671        C672   1.418       .  A
C671        C676   1.410       .  A
C672        C673   1.400       .  A
C672        N677   1.433       .  S
C673        C674   1.400       .  A
C673        H678   1.084       .  S
C674        C679   1.486       .  S
C674        C675   1.410       .  A
C675        C676   1.409       .  A
C675        N680   1.438       .  S
C676        H681   1.083       .  S
N677        H697   1.045       .  S
N677        H698   1.046       .  S
C679        C682   1.403       .  A
C679        C686   1.408       .  A
N680        H695   1.046       .  S
N680        H696   1.045       .  S
C682        C683   1.412       .  A
C682       H1525   1.084       .  S
C683        C684   1.420       .  A
C683       N1526   1.437       .  S
C684        C685   1.408       .  A
C685        C686   1.401       .  A
C685        H689   1.083       .  S
C686        N690   1.439       .  S
H687       C1520   1.084       .  S
N688       C1521   1.438       .  S
N688        H691   1.046       .  S
N688        H692   1.046       .  S
N690        H693   1.046       .  S
N690        H694   1.046       .  S
C699        C700   1.416       .  A
C699        C704   1.404       .  A
C700        C701   1.410       .  A
C700        N705   1.438       .  S
C701        C702   1.405       .  A
C701        H706   1.083       .  S
C702        C707   1.487       .  S
C702        C703   1.410       .  A
C703        C704   1.398       .  A
C703        N708   1.439       .  S
C704        H709   1.084       .  S
N705        H725   1.046       .  S
N705        H726   1.046       .  S
C707        C710   1.403       .  A
C707        C714   1.412       .  A
N708        H723   1.046       .  S
N708        H724   1.046       .  S
C710        C711   1.401       .  A
C710       H1553   1.084       .  S
C711        C712   1.411       .  A
C711       N1554   1.438       .  S
C712        C713   1.406       .  A
C713        C714   1.409       .  A
C713        H717   1.084       .  S
C714        N718   1.438       .  S
H715       C1548   1.084       .  S
N716       C1549   1.438   1_545  S
N716        H719   1.046       .  S
N716        H720   1.046       .  S
N718        H721   1.046       .  S
N718        H722   1.046       .  S
C727        C728   1.414       .  A
C727        C732   1.405       .  A
C728        C729   1.405       .  A
C728        N733   1.438       .  S
C729        C730   1.401       .  A
C729        H734   1.084       .  S
C730        C735   1.476       .  S
C730        C731   1.408       .  A
C731        C732   1.397       .  A
C731        N736   1.439       .  S
C732        H737   1.084       .  S
N733        H753   1.046       .  S
N733        H754   1.046       .  S
C735        C738   1.400       .  A
C735        C742   1.409   1_556  A
N736        H751   1.046       .  S
N736        H752   1.046       .  S
C738        C739   1.399       .  A
C738        H743   1.084       .  S
C739        N744   1.438       .  S
C740        C741   1.405       .  A
C741        H745   1.084       .  S
C742        N746   1.438       .  S
N744        H747   1.046       .  S
N744        H748   1.046       .  S
N746        H750   1.046   1_554  S
C755        C756   1.413       .  A
C755        C760   1.406   1_554  A
C756        C757   1.409   1_554  A
C757        C758   1.404       .  A
C757        H762   1.084   1_556  S
C758        C763   1.483       .  S
C758        C759   1.409       .  A
C759        C760   1.400       .  A
C759        N764   1.439       .  S
C760        H765   1.084       .  S
N761        H781   1.046       .  S
C763        C766   1.399       .  A
C763        C770   1.409       .  A
N764        H779   1.046       .  S
N764        H780   1.046       .  S
C766        C767   1.400       .  A
C766        H771   1.084       .  S
C767        C768   1.418       .  A
C767        N772   1.432       .  S
C768        C769   1.409       .  A
C769        C770   1.408       .  A
C769        H773   1.082       .  S
C770        N774   1.438       .  S
N772        H775   1.046       .  S
N772        H776   1.044       .  S
N774        H777   1.046       .  S
C783        C784   1.412       .  A
C783        C788   1.405       .  A
C784        C785   1.397       .  A
C784        N789   1.433       .  S
C785        C786   1.401       .  A
C785        H790   1.084       .  S
C786        C791   1.485       .  S
C786        C787   1.414       .  A
C787        C788   1.409       .  A
C787        N792   1.437       .  S
C788        H793   1.084       .  S
N789        H809   1.046       .  S
N789        H810   1.046       .  S
C791        C794   1.402       .  A
C791        C798   1.412       .  A
N792        H807   1.046       .  S
N792        H808   1.044       .  S
C794        C795   1.406       .  A
C794        H799   1.084       .  S
C795        C796   1.417       .  A
C795        N800   1.438       .  S
C796        C797   1.404       .  A
C797        C798   1.403       .  A
C797        H801   1.084       .  S
C798        N802   1.438       .  S
N800        H803   1.046       .  S
N800        H804   1.045       .  S
N802        H805   1.046       .  S
N802        H806   1.043       .  S
C811        C812   1.420       .  A
C811        C816   1.409       .  A
C812        C813   1.411       .  A
C812        N817   1.437       .  S
C813        C814   1.400       .  A
C813        H818   1.084       .  S
C814        C819   1.479       .  S
C814        C815   1.406       .  A
C815        C816   1.402       .  A
C815        N820   1.439       .  S
C816        H821   1.083       .  S
N817        H837   1.046       .  S
N817        H838   1.046       .  S
C819        C822   1.398       .  A
C819        C826   1.408       .  A
N820        H835   1.046       .  S
N820        H836   1.045       .  S
C822        C823   1.402       .  A
C822        H827   1.084       .  S
C823        C824   1.417       .  A
C823        N828   1.433       .  S
C824        C825   1.411       .  A
C825        C826   1.408       .  A
C825        H829   1.083       .  S
C826        N830   1.438       .  S
N828        H831   1.046       .  S
N828        H832   1.046       .  S
N830        H833   1.046       .  S
N830        H834   1.045       .  S
C839        N840   1.359       .  A
C839        N844   1.355       .  A
C839       C1230   1.478       .  S
N840        C841   1.359       .  A
C841        N842   1.361       .  A
C841        C849   1.469       .  S
N842        C843   1.359       .  A
C843        N844   1.355       .  A
C843       C1215   1.486       .  S
C845        N846   1.358       .  A
C845        N850   1.361       .  A
C845       C1593   1.493       .  S
N846        C847   1.355       .  A
C847        N848   1.357       .  A
C847       C1159   1.481       .  S
N848        C849   1.359       .  A
C849        N850   1.362       .  A
C851        N852   1.364       .  A
C851        N856   1.357       .  A
C851       C1103   1.489       .  S
N852        C853   1.364       .  A
C853        N854   1.358       .  A
C853        C859   1.471       .  S
N854        C855   1.354       .  A
C855        N856   1.353       .  A
C855       C1131   1.476       .  S
C857        N858   1.363       .  A
C857        N862   1.358       .  A
C857       C1466   1.487       .  S
N858        C859   1.361       .  A
C859        N860   1.360       .  A
N860        C861   1.356       .  A
C861        N862   1.357       .  A
C861       C1075   1.492       .  S
C863        N864   1.362       .  A
C863        N868   1.364       .  A
C863       C1006   1.489       .  S
N864        C865   1.359       .  A
C865        N866   1.355       .  A
C865        C991   1.483       .  S
N866        C867   1.358       .  A
C867        N868   1.362       .  A
C867        C871   1.474       .  S
C869        N870   1.364       .  A
C869        N874   1.360       .  A
C869       C1369   1.495       .  S
N870        C871   1.363       .  A
C871        N872   1.361       .  A
N872        C873   1.356       .  A
C873        N874   1.357       .  A
C873        C935   1.491       .  S
O875       Mn901   2.095       .  S
O875       C2578   1.273   1_455  A
C876       C1243   1.484       .  S
C876        O909   1.271       .  A
C876        O906   1.271       .  A
O877       Mn884   2.173       .  S
O877       Mn895   2.120       .  S
O877       Mn899   2.163       .  S
O877      Mn2577   2.123       .  S
O878       Mn912   2.097       .  S
O878        C888   1.273       .  A
O879       Mn895   2.115       .  S
O879        C902   1.276       .  A
O880       Mn899   2.095       .  S
O880        C907   1.250       .  A
O881       Mn901   1.960       .  S
O881        C897   1.217       .  S
C882        C922   1.485       .  S
C882        O885   1.253       .  A
C882        O908   1.219       .  S
O883       Mn884   2.164       .  S
O883       Mn917   2.121       .  S
O883       Mn899   2.166       .  S
Mn884       O889   2.096       .  S
Mn884      O2592   2.099       .  S
Mn884      O1728   2.156   1_565  S
O886       Mn893   2.074       .  S
O886        C888   1.267       .  A
C887        C978   1.491       .  S
C887        O913   1.254       .  A
C887        O900   1.214       .  S
C888       C1187   1.488       .  S
O889        C914   1.253       .  A
O890      Mn1722   2.156   1_455  S
O890       Mn893   2.124       .  S
O890       Mn912   2.119       .  S
O890      Mn1737   2.158   1_455  S
O891       Mn895   1.964       .  S
O891       Mn917   1.957       .  S
O891        C914   1.218       .  S
C892       C1034   1.491       .  S
C892        O894   1.271       .  A
Mn893       O906   2.086       .  S
Mn893      O2584   1.954   1_455  S
Mn893      O2576   1.962   1_455  S
O894       Mn917   2.080       .  S
Mn895       O911   2.098       .  S
Mn895       O905   1.962       .  S
O896       Mn901   2.100       .  S
O896       C2574   1.273   1_455  A
C897       C1062   1.485       .  S
C897        O915   1.254       .  A
C898       C1019   1.496       .  S
C898       O2572   1.272       .  A
C898        O911   1.273       .  A
Mn899      O2591   2.103       .  S
Mn899      O1728   2.159   1_565  S
O900      Mn2569   1.943       .  S
O900       Mn903   1.963       .  S
Mn901      O2553   2.123   1_455  S
Mn901       O919   1.956       .  S
C902        C963   1.505       .  S
C902       O2551   1.273       .  A
Mn903       O910   2.103       .  S
Mn903       O918   2.098       .  S
Mn903       O908   1.968       .  S
C904       C1090   1.486       .  S
C904        O920   1.273       .  A
O905       Mn917   1.962       .  S
O905        C907   1.219       .  S
C907       C1146   1.478       .  S
O908      Mn2569   1.956       .  S
O909       Mn912   2.086       .  S
C914       C1202   1.477       .  S
O915      Mn2575   2.107   1_455  S
O916      Mn2560   2.092   1_455  S
O916        C921   1.250       .  A
Mn917       O920   2.098       .  S
O919        C921   1.218       .  S
C921       C1118   1.477       .  S
C922        C923   1.413       .  A
C922       C2603   1.407       .  A
C923        C924   1.399       .  A
C923        N928   1.433       .  S
C924        C925   1.402       .  A
C924        H929   1.084       .  S
C925        C930   1.488       .  S
C925       C2602   1.412       .  A
C926       C2601   1.411       .  A
C926        C927   1.411       .  A
C926        N931   1.437   1_655  S
C927       C2598   1.407       .  A
C927        H932   1.083   1_655  S
N928        H948   1.046       .  S
N928        H949   1.045       .  S
C930        C933   1.403       .  A
C930        C937   1.408       .  A
N931        H946   1.045       .  S
N931        H947   1.046       .  S
C933       C1353   1.407       .  A
C933       H1357   1.084       .  S
C934       C1352   1.411       .  A
C934        C935   1.416       .  A
C934        N939   1.438       .  S
C935       C1355   1.405   1_554  A
C936       C1354   1.406       .  A
C936        C937   1.402       .  A
C936        H940   1.083       .  S
C937        N941   1.433       .  S
H938       C1352   1.083       .  S
N939        H942   1.046       .  S
N939        H943   1.046       .  S
N941        H944   1.046       .  S
N941        H945   1.046       .  S
C950       C1288   1.498       .  S
C950        C951   1.418       .  A
C950       C1374   1.408       .  A
C951        C952   1.409       .  A
C951       N2632   1.438       .  S
C952        C953   1.403       .  A
C952       H2633   1.084       .  S
C953        C958   1.496       .  S
C953        C954   1.412       .  A
C954       C1374   1.412       .  A
C954        N959   1.437       .  S
C955       C1369   1.410       .  A
C955       C1373   1.412       .  A
C955        H960   1.083       .  S
N956       C2627   1.433       .  S
N956        H976   1.046       .  S
N956        H977   1.046       .  S
H957       C2628   1.084       .  S
C958        C961   1.403       .  A
C958       C2641   1.409       .  A
N959       H1393   1.046       .  S
N959        H975   1.046       .  S
C961        C962   1.408       .  A
C961        H966   1.084       .  S
C962        C963   1.418       .  A
C962        N967   1.431       .  S
C963       C2640   1.412       .  A
C964       C2639   1.409   1_455  A
C964        C965   1.402       .  A
C964        H968   1.084       .  S
C965       C2634   1.405   1_455  A
C965        N969   1.432       .  S
N967        H970   1.046       .  S
N967        H971   1.046       .  S
N969        H972   1.045       .  S
N969        H973   1.045       .  S
H974       N1378   1.046       .  S
C978        C979   1.420       .  A
C978        C983   1.408       .  A
C979        C980   1.400       .  A
C979        N984   1.439       .  S
C980        C981   1.398       .  A
C980        H985   1.084       .  S
C981        C986   1.487       .  S
C981        C982   1.412       .  A
C982        C983   1.412       .  A
C982        N987   1.437       .  S
C983        H988   1.083       .  S
N984       H1004   1.045       .  S
N984       H1005   1.046       .  S
C986       C2665   1.405       .  A
C986        C993   1.409       .  A
N987       H2678   1.046       .  S
N987       H1003   1.045       .  S
C989       C2662   1.402       .  A
C989        C990   1.410       .  A
C989        H994   1.084       .  S
C990       C2667   1.419       .  A
C990        N995   1.438   1_655  S
C991       C2666   1.409       .  A
C991        C992   1.406       .  A
C992        C993   1.406       .  A
C992        H996   1.084       .  S
C993        N997   1.432       .  S
N995        H998   1.046       .  S
N995        H999   1.046       .  S
N997       H1000   1.046       .  S
N997       H1001   1.046       .  S
H1002      N2663   1.046       .  S
C1006      C2683   1.413       .  A
C1006      C1011   1.407       .  A
C1007      C2682   1.410       .  A
C1007      C1008   1.404       .  A
C1007      N1012   1.432       .  S
C1008      C2685   1.403       .  A
C1008      H1013   1.084       .  S
C1009      C1014   1.486       .  S
C1009      C2684   1.401       .  A
C1009      C1010   1.411       .  A
C1010      C1011   1.411       .  A
C1010      N1015   1.437       .  S
C1011      H1016   1.083       .  S
N1012      H1032   1.046       .  S
N1012      H1033   1.046       .  S
C1014      C2693   1.399       .  A
C1014      C1021   1.409       .  A
N1015      H1030   1.046       .  S
N1015      H1031   1.046       .  S
C1017      C2690   1.401   1_455  A
C1017      C1018   1.404       .  A
C1017      H1022   1.084       .  S
C1018      C2695   1.415   1_455  A
C1018      N1023   1.432       .  S
C1019      C2694   1.417       .  A
C1019      C1020   1.410       .  A
C1020      C1021   1.408       .  A
C1020      H1024   1.083       .  S
C1021      N1025   1.437       .  S
N1023      H1026   1.046       .  S
N1023      H1027   1.045       .  S
N1025      H1028   1.045       .  S
N1025      H1029   1.045       .  S
C1034      C1035   1.415   1_565  A
C1034      C1039   1.409       .  A
C1035      C1036   1.406   1_545  A
C1036      C1037   1.403       .  A
C1037      C1042   1.483       .  S
C1037      C1038   1.407       .  A
C1038      C1039   1.402       .  A
C1038      N1043   1.438       .  S
C1039      H1044   1.083       .  S
N1040      H1060   1.046       .  S
N1040      H1061   1.046       .  S
C1042      C1045   1.402       .  A
C1042      C1049   1.410       .  A
N1043      H1058   1.046       .  S
N1043      H1059   1.045       .  S
C1045      C1046   1.400       .  A
C1046      C1047   1.410       .  A
C1047      C1276   1.480       .  S
C1047      C1467   1.406       .  A
C1048      C1466   1.406       .  A
C1048      C1468   1.409   1_554  A
C1048      H1052   1.083       .  S
C1049      C1467   1.408       .  A
C1049      N1472   1.437   1_565  S
N1051      H1054   1.046       .  S
N1051      H1055   1.046       .  S
N1053      C1468   1.437   1_554  S
N1053      H1056   1.046   1_565  S
N1053      H1476   1.046       .  S
H1057      N1472   1.046   1_565  S
C1062      C1063   1.414       .  A
C1062      C1067   1.406       .  A
C1063      C1064   1.398       .  A
C1064      C1065   1.401       .  A
C1065      C1070   1.488       .  S
C1065      C1066   1.413       .  A
C1066      C1067   1.409       .  A
C1066      N1071   1.437       .  S
C1067      H1072   1.083       .  S
N1068      H1088   1.045       .  S
N1068      H1089   1.046       .  S
C1070      C1077   1.412       .  A
N1071      H1086   1.045       .  S
N1071      H1506   1.045       .  S
C1073      C1493   1.409       .  A
C1073      H1078   1.083       .  S
C1074      C1492   1.408       .  A
C1074      N1079   1.438       .  S
C1075      C1495   1.406   1_554  A
C1076      C1494   1.404       .  A
C1076      C1077   1.403       .  A
C1076      H1080   1.084       .  S
C1077      N1081   1.438       .  S
N1079      H1082   1.046       .  S
N1079      H1083   1.046       .  S
N1081      H1084   1.045       .  S
N1081      H1085   1.044       .  S
H1087      N1490   1.044       .  S
C1090      C1091   1.414       .  A
C1090      C1095   1.406       .  A
C1091      C1092   1.405       .  A
C1091      N1096   1.434   1_565  S
C1092      C1093   1.398       .  A
C1092      H1097   1.084   1_565  S
C1093      C1098   1.478       .  S
C1093      C1094   1.408       .  A
C1094      C1095   1.406       .  A
C1094      N1099   1.438       .  S
C1095      H1100   1.084       .  S
N1096      H1116   1.045       .  S
N1096      H1117   1.046       .  S
C1098      C1101   1.401       .  A
C1098      C1105   1.406       .  A
N1099      H1114   1.046       .  S
N1099      H1115   1.045       .  S
C1101      C1102   1.409       .  A
C1102      C1103   1.416       .  A
C1103      C1104   1.410       .  A
C1104      C1105   1.403       .  A
C1104      H1108   1.083       .  S
C1105      N1109   1.439   1_565  S
N1107      H1110   1.046       .  S
N1107      H1111   1.046       .  S
N1109      H1112   1.046       .  S
N1109      H1113   1.045   1_545  S
C1118      C1119   1.410       .  A
C1118      C1123   1.405       .  A
C1119      C1120   1.403       .  A
C1119      N1124   1.432       .  S
C1120      C1121   1.402       .  A
C1120      H1125   1.084       .  S
C1121      C1126   1.475       .  S
C1121      C1122   1.407       .  A
C1122      C1123   1.399       .  A
C1122      N1127   1.438       .  S
C1123      H1128   1.084       .  S
N1124      H1144   1.045       .  S
N1124      H1145   1.046   1_565  S
C1126      C1129   1.401       .  A
C1126      C1133   1.407       .  A
N1127      H1142   1.046       .  S
N1127      H1143   1.045       .  S
C1129      C1130   1.401       .  A
C1130      C1131   1.412       .  A
C1131      C1132   1.406       .  A
C1132      C1133   1.405       .  A
C1132      H1136   1.084       .  S
C1133      N1137   1.438       .  S
N1135      H1138   1.046       .  S
N1135      H1139   1.046       .  S
N1137      H1140   1.046       .  S
N1137      H1141   1.046       .  S
C1146      C1147   1.414       .  A
C1146      C1151   1.403       .  A
C1147      C1148   1.409       .  A
C1147      N1152   1.438       .  S
C1148      C1149   1.404       .  A
C1148      H1153   1.083       .  S
C1149      C1154   1.482       .  S
C1149      C1150   1.409       .  A
C1150      C1151   1.398       .  A
C1150      N1155   1.438       .  S
C1151      H1156   1.084       .  S
N1152      H1172   1.045       .  S
N1152      H1173   1.046       .  S
C1154      C1157   1.402       .  A
C1154      C1161   1.408       .  A
N1155      H1170   1.046       .  S
N1155      H1171   1.046       .  S
C1157      C1158   1.403       .  A
C1157      H1162   1.084       .  S
C1158      C1578   1.415       .  A
C1158      N1163   1.438       .  S
C1159      C1577   1.411   1_554  A
C1159      C1160   1.405       .  A
C1160      C1580   1.408       .  A
C1160      H1164   1.084       .  S
C1161      C1579   1.405       .  A
C1161      N1165   1.438       .  S
N1163      H1166   1.046       .  S
N1163      H1167   1.046       .  S
N1165      H1587   1.046       .  S
N1165      H1169   1.046       .  S
H1168      N1584   1.046       .  S
C1174      C1264   1.491       .  S
C1174      C1175   1.421       .  A
C1174      C1179   1.409       .  A
C1175      C1176   1.406       .  A
C1175      N1599   1.437       .  S
C1176      C1177   1.397       .  A
C1176      H1181   1.084       .  S
C1177      C1182   1.471       .  S
C1177      C1178   1.405       .  A
C1178      C1179   1.400       .  A
C1178      N1183   1.439       .  S
C1179      H1184   1.083       .  S
N1180      C1594   1.437       .  S
N1180      H1200   1.046       .  S
N1180      H1620   1.046       .  S
C1182      C1185   1.396       .  A
C1182      C1189   1.407       .  A
N1183      H1198   1.046       .  S
N1183      H1199   1.045       .  S
C1185      C1186   1.398       .  A
C1185      H1190   1.084       .  S
C1186      C1187   1.419       .  A
C1186      N1191   1.433       .  S
C1187      C1188   1.409       .  A
C1188      C1189   1.405       .  A
C1188      H1192   1.082       .  S
C1189      N1193   1.438       .  S
N1191      H1194   1.046       .  S
N1191      H1195   1.045       .  S
N1193      H1196   1.046       .  S
N1193      H1616   1.045       .  S
H1197      N1612   1.046       .  S
H1201      N1599   1.046       .  S
C1202      C1203   1.412       .  A
C1202      C1207   1.404       .  A
C1203      C1204   1.396       .  A
C1203      N1208   1.433       .  S
C1204      C1205   1.402       .  A
C1204      H1209   1.084       .  S
C1205      C1210   1.485       .  S
C1205      C1206   1.413       .  A
C1206      C1207   1.407       .  A
C1206      N1211   1.437       .  S
C1207      H1212   1.084       .  S
N1208      H1228   1.046       .  S
N1208      H1229   1.046       .  S
C1210      C1213   1.403       .  A
C1210      C1217   1.411       .  A
N1211      H1226   1.045       .  S
N1211      H1227   1.045       .  S
C1213      C1214   1.404       .  A
C1213      H1218   1.084       .  S
C1214      C1215   1.413       .  A
C1214      N1219   1.432       .  S
C1215      C1216   1.407       .  A
C1216      C1217   1.402       .  A
C1216      H1220   1.083       .  S
C1217      N1221   1.439       .  S
N1219      H1222   1.046       .  S
N1219      H1223   1.046       .  S
N1221      H1224   1.046       .  S
N1221      H1225   1.045       .  S
C1230      C1231   1.410       .  A
C1230      C1235   1.405       .  A
C1231      C1232   1.403       .  A
C1231      N1236   1.432       .  S
C1232      C1233   1.402       .  A
C1232      H1237   1.084       .  S
C1233      C1238   1.477       .  S
C1233      C1234   1.409       .  A
C1234      C1235   1.402       .  A
C1234      N1239   1.438       .  S
C1235      H1240   1.084       .  S
N1236      H1256   1.046       .  S
N1236      H1257   1.046       .  S
C1238      C1241   1.399       .  A
C1238      C1245   1.409       .  A
N1239      H1254   1.046       .  S
N1239      H1255   1.046       .  S
C1241      C1242   1.399       .  A
C1241      H1246   1.084       .  S
C1242      C1243   1.414       .  A
C1242      N1247   1.432       .  S
C1243      C1244   1.408       .  A
C1244      C1245   1.405       .  A
C1244      H1248   1.083       .  S
C1245      N1249   1.438       .  S
N1247      H1250   1.045       .  S
N1247      H1251   1.046       .  S
N1249      H1252   1.046       .  S
N1249      H1253   1.046       .  S
C1258      N1259   1.357       .  A
C1258      N1263   1.358       .  A
C1258      C1649   1.484       .  S
N1259      C1260   1.358       .  A
C1260      N1261   1.357       .  A
C1260      C1268   1.461       .  S
N1261      C1262   1.355       .  A
C1262      N1263   1.358       .  A
C1262      C1634   1.489       .  S
C1264      N1265   1.360       .  A
C1264      N1269   1.357       .  A
N1265      C1266   1.358       .  A
C1266      N1267   1.356       .  A
C1266      C1578   1.485       .  S
N1267      C1268   1.356       .  A
C1268      N1269   1.356       .  A
C1270      N1271   1.359       .  A
C1270      N1275   1.359       .  A
C1270      C1522   1.492       .  S
N1271      C1272   1.359       .  A
C1272      N1273   1.358       .  A
C1272      C1278   1.466       .  S
N1273      C1274   1.356       .  A
C1274      N1275   1.356       .  A
C1274      C1550   1.476       .  S
C1276      N1277   1.359       .  A
C1276      N1281   1.358       .  A
N1277      C1278   1.360       .  A
C1278      N1279   1.358       .  A
N1279      C1280   1.357       .  A
C1280      N1281   1.357       .  A
C1280      C1494   1.484       .  S
C1282      N1283   1.359       .  A
C1282      N1287   1.363       .  A
C1282      C1425   1.493       .  S
N1283      C1284   1.357       .  A
C1284      N1285   1.358       .  A
C1284      C1410   1.487       .  S
N1285      C1286   1.361       .  A
C1286      N1287   1.362       .  A
C1286      C1290   1.475       .  S
C1288      N1289   1.365       .  A
C1288      N1293   1.361       .  A
N1289      C1290   1.364       .  A
C1290      N1291   1.358       .  A
N1291      C1292   1.356       .  A
C1292      N1293   1.360       .  A
C1292      C1354   1.492       .  S
O1294     Mn1320   2.105       .  S
O1294      C2997   1.275   1_455  A
C1295      C1662   1.490       .  S
C1295      O1328   1.270       .  A
C1295      O1325   1.272       .  A
O1296     Mn1303   2.172       .  S
O1296     Mn1314   2.122       .  S
O1296     Mn1318   2.166       .  S
O1296     Mn2996   2.125       .  S
O1297     Mn1331   2.105       .  S
O1297      C1307   1.274       .  A
O1298     Mn1314   2.103       .  S
O1298      C1321   1.273       .  A
O1299     Mn1318   2.102       .  S
O1299      C1326   1.253       .  A
O1300     Mn1320   1.966       .  S
O1300      C1316   1.218       .  S
C1301      C1341   1.495       .  S
C1301      O1304   1.255       .  A
C1301      O1327   1.218       .  S
O1302     Mn1303   2.160       .  S
O1302     Mn1336   2.122       .  S
O1302     Mn1318   2.161       .  S
Mn1303     O1308   2.099       .  S
Mn1303     O3011   2.094       .  S
Mn1303     O2147   2.159   1_565  S
O1305     Mn1312   2.085       .  S
O1305      C1307   1.270       .  A
C1306      C1397   1.485       .  S
C1306      O1332   1.254       .  A
C1306      O1319   1.219       .  S
C1307      C1606   1.496       .  S
O1308      C1333   1.252       .  A
O1309     Mn2141   2.164   1_455  S
O1309     Mn1312   2.121       .  S
O1309     Mn1331   2.124       .  S
O1309     Mn2156   2.156   1_455  S
O1310     Mn1314   1.959       .  S
O1310     Mn1336   1.957       .  S
O1310      C1333   1.217       .  S
C1311      C1453   1.494       .  S
C1311      O1313   1.271       .  A
Mn1312     O1325   2.092       .  S
Mn1312     O3003   1.954   1_455  S
Mn1312     O2995   1.961   1_455  S
O1313     Mn1336   2.087       .  S
Mn1314     O1330   2.101       .  S
Mn1314     O1324   1.965       .  S
O1315     Mn1320   2.107       .  S
O1315      C2993   1.274   1_455  A
C1316      C1481   1.482       .  S
C1316      O1334   1.252       .  A
C1317      C1438   1.498       .  S
C1317      O2991   1.271       .  A
C1317      O1330   1.274       .  A
Mn1318     O3010   2.104       .  S
Mn1318     O2147   2.162   1_565  S
O1319     Mn2988   1.958       .  S
O1319     Mn1322   1.968       .  S
Mn1320     O2972   2.126   1_455  S
Mn1320     O1338   1.962       .  S
C1321      C1382   1.496       .  S
C1321      O2970   1.272       .  A
Mn1322     O1329   2.087       .  S
Mn1322     O1337   2.109       .  S
Mn1322     O1327   1.960       .  S
C1323      C1509   1.489       .  S
C1323      O1339   1.272       .  A
O1324     Mn1336   1.958       .  S
O1324      C1326   1.219       .  S
C1326      C1565   1.485       .  S
O1327     Mn2988   1.962       .  S
O1328     Mn1331   2.086       .  S
C1333      C1621   1.479       .  S
O1334     Mn2994   2.103   1_455  S
O1335     Mn2979   2.097   1_455  S
O1335      C1340   1.252       .  A
Mn1336     O1339   2.092       .  S
O1338      C1340   1.219       .  S
C1340      C1537   1.484       .  S
C1341      C1342   1.416       .  A
C1341      C3022   1.408       .  A
C1342      C1343   1.401       .  A
C1342      N1347   1.433       .  S
C1343      C1344   1.401       .  A
C1343      H1348   1.084       .  S
C1344      C1349   1.495       .  S
C1344      C3021   1.414       .  A
C1345      C3020   1.411       .  A
C1345      C1346   1.410       .  A
C1345      N1350   1.437   1_655  S
C1346      C3017   1.406       .  A
C1346      H1351   1.083   1_655  S
N1347      H1367   1.045       .  S
N1347      H1368   1.045       .  S
C1349      C1352   1.404   1_556  A
C1349      C1356   1.413       .  A
N1350      H1365   1.045       .  S
N1350      H1366   1.046       .  S
C1353      C1354   1.417       .  A
C1353      N1358   1.432       .  S
C1355      C1356   1.406       .  A
C1355      H1359   1.083       .  S
C1356      N1360   1.438       .  S
N1358      H1361   1.046       .  S
N1358      H1362   1.046       .  S
N1360      H1363   1.046       .  S
N1360      H1364   1.045       .  S
C1369      C1370   1.419   1_554  A
C1370      C1371   1.403       .  A
C1370      N3051   1.438       .  S
C1371      C1372   1.401       .  A
C1371      H3052   1.084       .  S
C1372      C1377   1.490       .  S
C1372      C1373   1.411   1_556  A
C1373      N1378   1.437       .  S
C1374      H1379   1.083       .  S
N1375      C3046   1.438       .  S
N1375      H1395   1.046       .  S
N1375      H1396   1.046       .  S
H1376      C3047   1.084       .  S
C1377      C1380   1.403       .  A
C1377      C3060   1.407       .  A
N1378      H1394   1.046       .  S
C1380      C1381   1.407       .  A
C1380      H1385   1.084       .  S
C1381      C1382   1.417       .  A
C1381      N1386   1.432       .  S
C1382      C3059   1.409       .  A
C1383      C3058   1.409   1_455  A
C1383      C1384   1.408       .  A
C1383      H1387   1.083       .  S
C1384      C3053   1.410   1_455  A
C1384      N1388   1.437       .  S
N1386      H1389   1.046       .  S
N1386      H1390   1.046       .  S
N1388      H1391   1.045       .  S
N1388      H1392   1.045       .  S
C1397      C1398   1.413       .  A
C1397      C1402   1.407       .  A
C1398      C1399   1.398       .  A
C1398      N1403   1.433       .  S
C1399      C1400   1.400       .  A
C1399      H1404   1.084       .  S
C1400      C1405   1.485       .  S
C1400      C1401   1.411       .  A
C1401      C1402   1.411       .  A
C1401      N1406   1.437       .  S
C1402      H1407   1.083       .  S
N1403      H1423   1.045       .  S
N1403      H1424   1.046       .  S
C1405      C3084   1.402       .  A
C1405      C1412   1.410       .  A
N1406      H3097   1.046       .  S
N1406      H1422   1.046       .  S
C1408      C3081   1.401       .  A
C1408      C1409   1.404       .  A
C1408      H1413   1.084   1_655  S
C1409      C3086   1.414       .  A
C1409      N1414   1.433   1_655  S
C1410      C3085   1.416       .  A
C1410      C1411   1.406       .  A
C1411      C1412   1.405       .  A
C1411      H1415   1.084       .  S
C1412      N1416   1.438       .  S
N1414      H1417   1.046       .  S
N1414      H1418   1.046       .  S
N1416      H1419   1.045       .  S
N1416      H1420   1.046       .  S
H1421      N3082   1.046       .  S
C1425      C3102   1.416       .  A
C1425      C1430   1.408       .  A
C1426      C3101   1.415       .  A
C1426      C1427   1.404       .  A
C1426      N1431   1.433       .  S
C1427      C3104   1.402       .  A
C1427      H1432   1.084       .  S
C1428      C1433   1.488       .  S
C1428      C3103   1.400       .  A
C1428      C1429   1.411       .  A
C1429      C1430   1.410       .  A
C1429      N1434   1.437       .  S
C1430      H1435   1.083       .  S
N1431      H1451   1.046       .  S
N1431      H1452   1.046       .  S
C1433      C3112   1.400       .  A
C1433      C1440   1.410       .  A
N1434      H1449   1.046       .  S
N1434      H1450   1.046       .  S
C1436      C3109   1.404   1_455  A
C1436      C1437   1.407       .  A
C1436      H1441   1.084       .  S
C1437      C3114   1.416   1_455  A
C1437      N1442   1.432       .  S
C1438      C3113   1.418       .  A
C1438      C1439   1.409       .  A
C1439      C1440   1.407       .  A
C1439      H1443   1.083       .  S
C1440      N1444   1.437       .  S
N1442      H1445   1.046       .  S
N1442      H1446   1.046       .  S
N1444      H1447   1.045       .  S
N1444      H1448   1.045       .  S
C1453      C1454   1.415       .  A
C1453      C1458   1.410       .  A
C1454      C1455   1.405       .  A
C1455      C1456   1.403       .  A
C1456      C1461   1.487       .  S
C1456      C1457   1.410       .  A
C1457      C1458   1.405       .  A
C1457      N1462   1.438       .  S
C1458      H1463   1.083       .  S
N1459      H1479   1.046       .  S
N1459      H1480   1.045       .  S
C1461      C1464   1.401       .  A
C1461      C1468   1.411       .  A
N1462      H1477   1.046       .  S
N1462      H1478   1.045       .  S
C1464      C1465   1.404       .  A
C1465      C1466   1.416   1_556  A
C1467      H1471   1.084       .  S
N1470      H1473   1.046       .  S
N1470      H1474   1.046       .  S
N1472      H1475   1.046       .  S
C1481      C1482   1.411       .  A
C1481      C1486   1.405       .  A
C1482      C1483   1.398       .  A
C1483      C1484   1.402       .  A
C1484      C1489   1.490       .  S
C1484      C1485   1.414       .  A
C1485      C1486   1.411       .  A
C1485      N1490   1.437       .  S
C1486      H1491   1.084       .  S
N1487      H1507   1.045       .  S
N1487      H1508   1.046       .  S
C1489      C1496   1.412       .  A
N1490      H1505   1.046       .  S
C1492      H1497   1.084       .  S
C1493      N1498   1.438       .  S
C1495      C1496   1.403       .  A
C1495      H1499   1.083       .  S
C1496      N1500   1.438       .  S
N1498      H1501   1.046       .  S
N1498      H1502   1.046       .  S
N1500      H1503   1.046       .  S
N1500      H1504   1.045       .  S
C1509      C1510   1.418   1_565  A
C1509      C1514   1.409       .  A
C1510      C1511   1.400       .  A
C1510      N1515   1.433       .  S
C1511      C1512   1.399   1_545  A
C1511      H1516   1.084       .  S
C1512      C1517   1.478       .  S
C1512      C1513   1.408       .  A
C1513      C1514   1.405       .  A
C1513      N1518   1.438       .  S
C1514      H1519   1.083       .  S
N1515      H1535   1.045       .  S
N1515      H1536   1.046       .  S
C1517      C1520   1.400       .  A
C1517      C1524   1.407       .  A
N1518      H1533   1.046       .  S
N1518      H1534   1.046       .  S
C1520      C1521   1.408       .  A
C1521      C1522   1.421       .  A
C1522      C1523   1.409       .  A
C1523      C1524   1.400       .  A
C1523      H1527   1.083       .  S
C1524      N1528   1.439       .  S
N1526      H1529   1.046       .  S
N1526      H1530   1.046       .  S
N1528      H1531   1.045       .  S
N1528      H1532   1.046       .  S
C1537      C1538   1.412       .  A
C1537      C1542   1.407       .  A
C1538      C1539   1.405       .  A
C1538      N1543   1.432       .  S
C1539      C1540   1.403       .  A
C1539      H1544   1.084       .  S
C1540      C1545   1.483       .  S
C1540      C1541   1.409       .  A
C1541      C1542   1.401       .  A
C1541      N1546   1.438       .  S
C1542      H1547   1.083       .  S
N1543      H1563   1.046       .  S
N1543      H1564   1.046   1_565  S
C1545      C1548   1.403   1_565  A
C1545      C1552   1.411       .  A
N1546      H1561   1.046       .  S
N1546      H1562   1.046       .  S
C1548      C1549   1.403   1_545  A
C1549      C1550   1.411       .  A
C1550      C1551   1.403       .  A
C1551      C1552   1.406       .  A
C1551      H1555   1.084       .  S
C1552      N1556   1.438       .  S
N1554      H1557   1.046       .  S
N1554      H1558   1.046       .  S
N1556      H1559   1.046       .  S
N1556      H1560   1.046       .  S
C1565      C1566   1.414       .  A
C1565      C1570   1.406       .  A
C1566      C1567   1.409       .  A
C1566      N1571   1.437       .  S
C1567      C1568   1.404       .  A
C1567      H1572   1.083       .  S
C1568      C1573   1.486       .  S
C1568      C1569   1.410       .  A
C1569      C1570   1.400       .  A
C1569      N1574   1.439       .  S
C1570      H1575   1.084       .  S
N1571      H1591   1.046       .  S
N1571      H1592   1.046       .  S
C1573      C1576   1.403       .  A
C1573      C1580   1.412   1_556  A
N1574      H1589   1.046       .  S
N1574      H1590   1.046       .  S
C1576      C1577   1.400       .  A
C1576      H1581   1.084       .  S
C1577      N1582   1.433       .  S
C1578      C1579   1.408       .  A
C1579      H1583   1.083       .  S
C1580      N1584   1.438       .  S
N1582      H1585   1.046       .  S
N1582      H1586   1.046       .  S
N1584      H1588   1.046   1_554  S
C1593      C1594   1.419       .  A
C1593      C1598   1.407   1_554  A
C1594      C1595   1.412   1_554  A
C1595      C1596   1.403       .  A
C1595      H1600   1.084   1_556  S
C1596      C1601   1.485       .  S
C1596      C1597   1.408       .  A
C1597      C1598   1.400       .  A
C1597      N1602   1.439       .  S
C1598      H1603   1.083       .  S
N1599      H1619   1.045       .  S
C1601      C1604   1.399       .  A
C1601      C1608   1.410       .  A
N1602      H1617   1.046       .  S
N1602      H1618   1.046       .  S
C1604      C1605   1.400       .  A
C1604      H1609   1.084       .  S
C1605      C1606   1.418       .  A
C1605      N1610   1.432       .  S
C1606      C1607   1.410       .  A
C1607      C1608   1.410       .  A
C1607      H1611   1.083       .  S
C1608      N1612   1.438       .  S
N1610      H1613   1.046       .  S
N1610      H1614   1.044       .  S
N1612      H1615   1.046       .  S
C1621      C1622   1.411       .  A
C1621      C1626   1.405       .  A
C1622      C1623   1.396       .  A
C1622      N1627   1.433       .  S
C1623      C1624   1.402       .  A
C1623      H1628   1.084       .  S
C1624      C1629   1.487       .  S
C1624      C1625   1.413       .  A
C1625      C1626   1.409       .  A
C1625      N1630   1.437       .  S
C1626      H1631   1.084       .  S
N1627      H1647   1.046       .  S
N1627      H1648   1.046       .  S
C1629      C1632   1.403       .  A
C1629      C1636   1.411       .  A
N1630      H1645   1.046       .  S
N1630      H1646   1.046       .  S
C1632      C1633   1.407       .  A
C1632      H1637   1.083       .  S
C1633      C1634   1.419       .  A
C1633      N1638   1.438       .  S
C1634      C1635   1.406       .  A
C1635      C1636   1.401       .  A
C1635      H1639   1.083       .  S
C1636      N1640   1.438       .  S
N1638      H1641   1.046       .  S
N1638      H1642   1.046       .  S
N1640      H1643   1.046       .  S
N1640      H1644   1.045       .  S
C1649      C1650   1.414       .  A
C1649      C1654   1.405       .  A
C1650      C1651   1.404       .  A
C1650      N1655   1.432       .  S
C1651      C1652   1.402       .  A
C1651      H1656   1.084       .  S
C1652      C1657   1.481       .  S
C1652      C1653   1.410       .  A
C1653      C1654   1.402       .  A
C1653      N1658   1.438       .  S
C1654      H1659   1.083       .  S
N1655      H1675   1.045       .  S
N1655      H1676   1.046       .  S
C1657      C1660   1.399       .  A
C1657      C1664   1.409       .  A
N1658      H1673   1.046       .  S
N1658      H1674   1.046       .  S
C1660      C1661   1.400       .  A
C1660      H1665   1.084       .  S
C1661      C1662   1.417       .  A
C1661      N1666   1.432       .  S
C1662      C1663   1.409       .  A
C1663      C1664   1.405       .  A
C1663      H1667   1.083       .  S
C1664      N1668   1.438       .  S
N1666      H1669   1.045       .  S
N1666      H1670   1.046       .  S
N1668      H1671   1.046       .  S
N1668      H1672   1.046       .  S
C1677      N1678   1.359       .  A
C1677      N1682   1.357       .  A
C1677      C2068   1.488       .  S
N1678      C1679   1.359       .  A
C1679      N1680   1.358       .  A
C1679      C1687   1.464       .  S
N1680      C1681   1.355       .  A
C1681      N1682   1.355       .  A
C1681      C2053   1.480       .  S
C1683      N1684   1.356       .  A
C1683      N1688   1.360       .  A
C1683      C2431   1.488       .  S
N1684      C1685   1.353       .  A
C1685      N1686   1.354       .  A
C1685      C1997   1.477       .  S
N1686      C1687   1.358       .  A
C1687      N1688   1.361       .  A
C1689      N1690   1.358       .  A
C1689      N1694   1.357       .  A
C1689      C1941   1.491       .  S
N1690      C1691   1.360       .  A
C1691      N1692   1.358       .  A
C1691      C1697   1.463       .  S
N1692      C1693   1.355       .  A
C1693      N1694   1.354       .  A
C1693      C1969   1.476       .  S
C1695      N1696   1.358       .  A
C1695      N1700   1.359       .  A
C1695      C2304   1.484       .  S
N1696      C1697   1.357       .  A
C1697      N1698   1.356       .  A
N1698      C1699   1.355       .  A
C1699      N1700   1.359       .  A
C1699      C1913   1.484       .  S
C1701      N1702   1.360       .  A
C1701      N1706   1.360       .  A
C1701      C1844   1.483       .  S
N1702      C1703   1.359       .  A
C1703      N1704   1.358       .  A
C1703      C1829   1.493       .  S
N1704      C1705   1.360       .  A
C1705      N1706   1.358       .  A
C1705      C1709   1.471       .  S
C1707      N1708   1.363       .  A
C1707      N1712   1.359       .  A
C1707      C2207   1.490       .  S
N1708      C1709   1.364       .  A
C1709      N1710   1.357       .  A
N1710      C1711   1.354       .  A
C1711      N1712   1.356       .  A
C1711      C1773   1.478       .  S
O1713     Mn1739   2.098       .  S
C1714      C2081   1.490       .  S
C1714      O1747   1.268       .  A
C1714      O1744   1.273       .  A
O1715     Mn1722   2.171       .  S
O1715     Mn1733   2.124       .  S
O1715     Mn1737   2.162       .  S
O1716     Mn1750   2.090       .  S
O1716      C1726   1.271       .  A
O1717     Mn1733   2.111       .  S
O1717      C1740   1.275       .  A
O1718     Mn1737   2.085       .  S
O1718      C1745   1.250       .  A
O1719     Mn2588   1.957       .  S
O1719     Mn1739   1.954       .  S
O1719      C1735   1.217       .  S
C1720      C1760   1.487       .  S
C1720      O1723   1.253       .  A
C1720      O1746   1.217       .  S
O1721     Mn2579   2.123       .  S
O1721     Mn1722   2.162       .  S
O1721     Mn1755   2.123       .  S
O1721     Mn1737   2.166       .  S
Mn1722     O2589   2.111       .  S
Mn1722     O1727   2.098       .  S
O1723     Mn2575   2.111   1_545  S
O1724     Mn1731   2.080       .  S
O1724      C1726   1.269       .  A
C1725      C1816   1.487       .  S
C1725      O1751   1.253       .  A
C1725      O1738   1.216       .  S
C1726      C2025   1.488       .  S
O1727      C1752   1.251       .  A
O1728     Mn1731   2.124       .  S
O1728     Mn1750   2.118       .  S
O1729     Mn1733   1.962       .  S
O1729     Mn1755   1.946       .  S
O1729      C1752   1.217       .  S
C1730      C1872   1.489       .  S
C1730      O2594   1.272       .  A
C1730      O1732   1.269       .  A
Mn1731     O1744   2.098       .  S
O1732     Mn1755   2.074       .  S
Mn1733     O1749   2.089       .  S
Mn1733     O1743   1.964       .  S
O1734     Mn1739   2.087       .  S
C1735      C1900   1.477       .  S
C1735      O1753   1.251       .  A
C1736      C1857   1.490       .  S
C1736      O1749   1.271       .  A
Mn1737     O2561   2.106       .  S
O1738     Mn1741   1.954       .  S
Mn1739     O1757   1.963       .  S
C1740      C1801   1.501       .  S
Mn1741     O1748   2.096       .  S
Mn1741     O1756   2.086       .  S
Mn1741     O2559   2.120   1_545  S
Mn1741     O1746   1.956       .  S
C1742      C1928   1.490       .  S
C1742      O2586   1.268       .  A
C1742      O1758   1.272       .  A
O1743     Mn1755   1.962       .  S
O1743      C1745   1.220       .  S
C1745      C1984   1.476       .  S
O1747     Mn1750   2.077       .  S
O1748      C2580   1.271   1_545  A
Mn1750     O2557   1.949   1_545  S
Mn1750     O2595   1.960   1_545  S
O1751     Mn2560   2.112   1_545  S
C1752      C2040   1.478       .  S
O1754      C1759   1.252       .  A
Mn1755     O1758   2.097       .  S
O1756      C2568   1.270   1_545  A
O1757     Mn2588   1.969       .  S
O1757      C1759   1.222       .  S
C1759      C1956   1.484       .  S
C1760      C1761   1.415       .  A
C1761      C1762   1.395       .  A
C1761      N1766   1.433       .  S
C1762      C1763   1.398       .  A
C1762      H1767   1.084       .  S
C1763      C1768   1.485       .  S
C1764      C1765   1.407       .  A
C1764      N1769   1.437       .  S
C1765      H1770   1.083       .  S
N1766      H1786   1.045       .  S
N1766      H1787   1.045       .  S
C1768      C1771   1.401       .  A
C1768      C1775   1.412   1_655  A
N1769      H1784   1.045       .  S
N1769      H1785   1.046       .  S
C1771      C2191   1.407       .  A
C1771      H2195   1.084       .  S
C1772      C2190   1.405   1_554  A
C1772      C1773   1.411       .  A
C1772      N1777   1.432       .  S
C1773      C2193   1.403   1_654  A
C1774      C2192   1.403   1_455  A
C1774      C1775   1.404       .  A
C1774      H1778   1.084       .  S
C1775      N1779   1.438       .  S
H1776      C2190   1.084   1_554  S
N1777      H1780   1.046       .  S
N1777      H1781   1.046       .  S
N1779      H1782   1.046       .  S
N1779      H1783   1.045       .  S
C1788      C2126   1.494       .  S
C1788      C1789   1.416   1_655  A
C1788      C2212   1.408       .  A
C1789      C1790   1.407       .  A
C1790      C1791   1.404   1_455  A
C1791      C1796   1.496       .  S
C1791      C1792   1.412       .  A
C1792      C2212   1.410       .  A
C1792      N1797   1.437       .  S
C1793      C2207   1.406       .  A
C1793      C2211   1.411   1_554  A
C1793      H1798   1.083       .  S
N1794      H1814   1.046       .  S
N1794      H1815   1.046       .  S
C1796      C1799   1.405       .  A
N1797      H2231   1.046       .  S
N1797      H1813   1.046       .  S
C1799      C1800   1.409       .  A
C1799      H1804   1.084       .  S
C1800      C1801   1.417       .  A
C1800      N1805   1.432       .  S
C1802      C1803   1.408       .  A
C1802      H1806   1.083       .  S
C1803      N1807   1.438       .  S
N1805      H1808   1.046       .  S
N1805      H1809   1.046       .  S
N1807      H1810   1.046       .  S
N1807      H1811   1.045       .  S
H1812      N2216   1.045       .  S
C1816      C1817   1.415       .  A
C1816      C1821   1.405       .  A
C1817      C1818   1.399       .  A
C1817      N1822   1.433   1_655  S
C1818      C1819   1.401       .  A
C1818      H1823   1.084   1_655  S
C1819      C1824   1.491       .  S
C1819      C1820   1.414       .  A
C1820      C1821   1.411       .  A
C1820      N1825   1.437       .  S
C1821      H1826   1.083       .  S
N1822      H1842   1.045   1_455  S
N1822      H1843   1.045       .  S
C1824      C1831   1.411       .  A
N1825      H1841   1.046       .  S
C1827      C1828   1.400       .  A
C1827      H1832   1.084       .  S
C1828      N1833   1.433       .  S
C1829      C1830   1.407       .  A
C1830      C1831   1.405       .  A
C1830      H1834   1.083       .  S
C1831      N1835   1.438       .  S
N1833      H1836   1.046       .  S
N1833      H1837   1.046       .  S
N1835      H1838   1.046       .  S
N1835      H1839   1.046       .  S
C1844      C1849   1.407       .  A
C1845      C1846   1.400       .  A
C1845      N1850   1.433       .  S
C1846      H1851   1.084       .  S
C1847      C1852   1.480       .  S
C1847      C1848   1.409       .  A
C1848      C1849   1.408       .  A
C1848      N1853   1.437   1_655  S
C1849      H1854   1.083   1_655  S
N1850      H1870   1.046       .  S
N1850      H1871   1.046       .  S
C1852      C1859   1.408       .  A
N1853      H1868   1.046       .  S
N1853      H1869   1.046   1_455  S
C1855      C1856   1.406       .  A
C1855      H1860   1.084       .  S
C1856      N1861   1.432       .  S
C1857      C1858   1.410       .  A
C1858      C1859   1.406       .  A
C1858      H1862   1.084       .  S
C1859      N1863   1.438       .  S
N1861      H1864   1.046       .  S
N1861      H1865   1.045       .  S
N1863      H1866   1.045       .  S
N1863      H1867   1.046       .  S
C1872      C1873   1.415       .  A
C1872      C1877   1.411       .  A
C1873      C1874   1.403       .  A
C1873      N2716   1.431       .  S
C1874      C1875   1.401       .  A
C1874      H2717   1.084       .  S
C1875      C1880   1.478       .  S
C1875      C1876   1.404       .  A
C1876      C1877   1.400       .  A
C1876      N1881   1.433       .  S
C1877      H1882   1.084       .  S
N1878      C2711   1.432       .  S
N1878      H1898   1.046       .  S
N1878      H1899   1.046       .  S
H1879      C2712   1.084   1_545  S
C1880      C1883   1.400       .  A
C1880      C1887   1.408       .  A
N1881      H1896   1.046       .  S
N1881      H1897   1.045       .  S
C1883      C1884   1.400       .  A
C1883      H2726   1.084       .  S
C1884      C1885   1.414       .  A
C1884      N2727   1.433       .  S
C1885      C2114   1.486       .  S
C1885      C2305   1.408       .  A
C1886      C2304   1.408       .  A
C1886      C2306   1.407       .  A
C1886      H1890   1.083       .  S
C1887      C2305   1.407       .  A
C1887      N2310   1.437       .  S
H1888      C2721   1.084       .  S
N1889      C2722   1.433       .  S
N1889      H1892   1.046       .  S
N1889      H1893   1.046       .  S
N1891      C2306   1.437       .  S
N1891      H1894   1.046       .  S
N1891      H2314   1.046       .  S
H1895      N2310   1.046       .  S
C1900      C1901   1.411       .  A
C1900      C1905   1.405       .  A
C1901      C1902   1.397       .  A
C1901      N2744   1.433       .  S
C1902      C1903   1.400       .  A
C1902      H2745   1.084       .  S
C1903      C1908   1.480       .  S
C1903      C1904   1.411       .  A
C1904      C1905   1.408       .  A
C1904      N1909   1.437       .  S
C1905      H1910   1.084       .  S
N1906      C2739   1.434   1_545  S
N1906      H1926   1.045       .  S
N1906      H1927   1.046   1_545  S
H1907      C2740   1.084   1_545  S
C1908      C2749   1.399       .  A
C1908      C1915   1.408       .  A
N1909      H1924   1.046       .  S
N1909      H2344   1.046       .  S
C1911      C2746   1.402       .  A
C1911      C2331   1.406       .  A
C1911      H1916   1.084   1_565  S
C1912      C2330   1.409       .  A
C1912      C2751   1.417       .  A
C1912      N1917   1.438       .  S
C1913      C2750   1.417       .  A
C1913      C2333   1.404   1_554  A
C1914      C2332   1.407       .  A
C1914      C1915   1.403       .  A
C1914      H1918   1.083       .  S
C1915      N1919   1.438       .  S
N1917      H1920   1.046       .  S
N1917      H1921   1.046       .  S
N1919      H1922   1.045       .  S
N1919      H1923   1.046       .  S
H1925      N2328   1.046       .  S
C1928      C1929   1.418       .  A
C1928      C1933   1.409       .  A
C1929      C1930   1.399       .  A
C1929      N1934   1.433       .  S
C1930      C1931   1.399       .  A
C1930      H1935   1.084       .  S
C1931      C1936   1.476       .  S
C1931      C1932   1.407       .  A
C1932      C1933   1.406       .  A
C1932      N1937   1.438       .  S
C1933      H1938   1.082       .  S
N1934      H1954   1.044       .  S
N1934      H1955   1.046       .  S
C1936      C1939   1.400       .  A
C1936      C1943   1.405       .  A
N1937      H1952   1.046       .  S
N1937      H1953   1.046       .  S
C1939      C1940   1.409       .  A
C1939      H2782   1.084       .  S
C1940      C1941   1.420       .  A
C1940      N2783   1.438       .  S
C1941      C1942   1.409       .  A
C1942      C1943   1.398       .  A
C1942      H1946   1.083       .  S
C1943      N1947   1.439       .  S
H1944      C2777   1.084       .  S
N1945      C2778   1.437       .  S
N1945      H1948   1.046       .  S
N1945      H1949   1.046       .  S
N1947      H1950   1.046       .  S
N1947      H1951   1.046       .  S
C1956      C1957   1.416       .  A
C1956      C1961   1.405       .  A
C1957      C1958   1.407       .  A
C1957      N1962   1.438       .  S
C1958      C1959   1.403       .  A
C1958      H1963   1.083       .  S
C1959      C1964   1.484       .  S
C1959      C1960   1.410       .  A
C1960      C1961   1.401       .  A
C1960      N1965   1.439       .  S
C1961      H1966   1.084       .  S
N1962      H1982   1.045       .  S
N1962      H1983   1.046       .  S
C1964      C1967   1.403       .  A
C1964      C1971   1.412       .  A
N1965      H1980   1.046       .  S
N1965      H1981   1.046       .  S
C1967      C1968   1.402       .  A
C1967      H2810   1.084       .  S
C1968      C1969   1.411       .  A
C1968      N2811   1.438       .  S
C1969      C1970   1.403       .  A
C1970      C1971   1.406       .  A
C1970      H1974   1.084       .  S
C1971      N1975   1.438       .  S
H1972      C2805   1.084   1_545  S
N1973      C2806   1.438   1_545  S
N1973      H1976   1.046       .  S
N1973      H1977   1.046       .  S
N1975      H1978   1.046       .  S
N1975      H1979   1.046       .  S
C1984      C1985   1.414       .  A
C1984      C1989   1.404       .  A
C1985      C1986   1.405       .  A
C1985      N1990   1.438       .  S
C1986      C1987   1.401       .  A
C1986      H1991   1.084       .  S
C1987      C1992   1.477       .  S
C1987      C1988   1.408       .  A
C1988      C1989   1.399       .  A
C1988      N1993   1.438       .  S
C1989      H1994   1.084       .  S
N1990      H2010   1.045       .  S
N1990      H2011   1.046       .  S
C1992      C1995   1.401       .  A
C1992      C1999   1.409       .  A
N1993      H2008   1.046       .  S
N1993      H2009   1.046       .  S
C1995      C1996   1.401       .  A
C1995      H2000   1.084       .  S
C1996      C2416   1.413       .  A
C1996      N2001   1.438       .  S
C1997      C2415   1.414   1_554  A
C1997      C1998   1.405       .  A
C1998      C2418   1.405   1_554  A
C1998      H2002   1.084       .  S
C1999      C2417   1.404       .  A
C1999      N2003   1.438       .  S
N2001      H2004   1.046       .  S
N2001      H2005   1.046       .  S
N2003      H2425   1.046       .  S
N2003      H2007   1.046       .  S
H2006      N2422   1.046       .  S
C2012      C2102   1.485       .  S
C2012      C2013   1.418       .  A
C2012      C2017   1.406       .  A
C2013      C2014   1.408       .  A
C2013      N2437   1.438       .  S
C2014      C2015   1.401       .  A
C2014      H2019   1.084       .  S
C2015      C2020   1.477       .  S
C2015      C2016   1.407       .  A
C2016      C2017   1.398       .  A
C2016      N2021   1.439       .  S
C2017      H2022   1.083       .  S
N2018      C2432   1.437       .  S
N2018      H2038   1.046       .  S
N2018      H2458   1.046       .  S
C2020      C2023   1.399       .  A
C2020      C2027   1.408       .  A
N2021      H2036   1.045       .  S
N2021      H2037   1.046       .  S
C2023      C2024   1.398       .  A
C2023      H2028   1.084       .  S
C2024      C2025   1.416       .  A
C2024      N2029   1.432       .  S
C2025      C2026   1.409       .  A
C2026      C2027   1.405       .  A
C2026      H2030   1.082       .  S
C2027      N2031   1.438       .  S
N2029      H2032   1.046       .  S
N2029      H2033   1.043       .  S
N2031      H2034   1.046       .  S
N2031      H2454   1.046       .  S
H2035      N2450   1.046       .  S
H2039      N2437   1.046       .  S
C2040      C2041   1.413       .  A
C2040      C2045   1.405       .  A
C2041      C2042   1.395       .  A
C2041      N2046   1.433       .  S
C2042      C2043   1.400       .  A
C2042      H2047   1.084       .  S
C2043      C2048   1.482       .  S
C2043      C2044   1.412       .  A
C2044      C2045   1.408       .  A
C2044      N2049   1.437       .  S
C2045      H2050   1.084       .  S
N2046      H2066   1.046       .  S
N2046      H2067   1.046       .  S
C2048      C2051   1.403       .  A
C2048      C2055   1.412       .  A
N2049      H2064   1.046       .  S
N2049      H2065   1.046       .  S
C2051      C2052   1.404       .  A
C2051      H2056   1.084       .  S
C2052      C2053   1.412       .  A
C2052      N2057   1.432       .  S
C2053      C2054   1.403       .  A
C2054      C2055   1.400       .  A
C2054      H2058   1.084       .  S
C2055      N2059   1.439       .  S
N2057      H2060   1.046       .  S
N2057      H2061   1.046       .  S
N2059      H2062   1.046       .  S
N2059      H2063   1.045       .  S
C2068      C2069   1.415       .  A
C2068      C2073   1.408       .  A
C2069      C2070   1.405       .  A
C2069      N2074   1.432       .  S
C2070      C2071   1.400       .  A
C2070      H2075   1.084       .  S
C2071      C2076   1.476       .  S
C2071      C2072   1.407       .  A
C2072      C2073   1.400       .  A
C2072      N2077   1.439       .  S
C2073      H2078   1.083       .  S
N2074      H2094   1.046       .  S
N2074      H2095   1.046       .  S
C2076      C2079   1.398       .  A
C2076      C2083   1.408       .  A
N2077      H2092   1.046       .  S
N2077      H2093   1.046       .  S
C2079      C2080   1.399       .  A
C2079      H2084   1.084       .  S
C2080      C2081   1.418       .  A
C2080      N2085   1.433       .  S
C2081      C2082   1.409       .  A
C2082      C2083   1.406       .  A
C2082      H2086   1.083       .  S
C2083      N2087   1.438       .  S
N2085      H2088   1.046       .  S
N2085      H2089   1.046       .  S
N2087      H2090   1.046       .  S
N2087      H2091   1.046       .  S
C2096      N2097   1.357       .  A
C2096      N2101   1.359       .  A
C2096      C2487   1.486       .  S
N2097      C2098   1.357       .  A
C2098      N2099   1.356       .  A
C2098      C2106   1.461       .  S
N2099      C2100   1.355       .  A
C2100      N2101   1.357       .  A
C2100      C2472   1.481       .  S
C2102      N2103   1.357       .  A
C2102      N2107   1.357       .  A
N2103      C2104   1.355       .  A
C2104      N2105   1.356       .  A
C2104      C2416   1.476       .  S
N2105      C2106   1.358       .  A
C2106      N2107   1.358       .  A
C2108      N2109   1.361       .  A
C2108      N2113   1.359       .  A
C2108      C2360   1.485       .  S
N2109      C2110   1.361       .  A
C2110      N2111   1.358       .  A
C2110      C2116   1.468       .  S
N2111      C2112   1.355       .  A
C2112      N2113   1.357       .  A
C2112      C2388   1.481       .  S
C2114      N2115   1.361       .  A
C2114      N2119   1.359       .  A
N2115      C2116   1.359       .  A
C2116      N2117   1.357       .  A
N2117      C2118   1.355       .  A
C2118      N2119   1.358       .  A
C2118      C2332   1.490       .  S
C2120      N2121   1.362       .  A
C2120      N2125   1.362       .  A
C2120      C2263   1.486       .  S
N2121      C2122   1.359       .  A
C2122      N2123   1.354       .  A
C2122      C2248   1.486       .  S
N2123      C2124   1.357       .  A
C2124      N2125   1.359       .  A
C2124      C2128   1.468       .  S
C2126      N2127   1.364       .  A
C2126      N2131   1.363       .  A
N2127      C2128   1.361       .  A
C2128      N2129   1.355       .  A
N2129      C2130   1.352       .  A
C2130      N2131   1.360       .  A
C2130      C2192   1.485       .  S
O2132     Mn2158   2.091       .  S
C2133      C2500   1.489       .  S
C2133      O2166   1.268       .  A
C2133      O2163   1.273       .  A
O2134     Mn2141   2.166       .  S
O2134     Mn2152   2.119       .  S
O2134     Mn2156   2.167       .  S
O2135     Mn2169   2.097       .  S
O2135      C2145   1.273       .  A
O2136     Mn2152   2.098       .  S
O2136      C2159   1.272       .  A
O2137     Mn2156   2.090       .  S
O2137      C2164   1.249       .  A
O2138     Mn3007   1.952       .  S
O2138     Mn2158   1.954       .  S
O2138      C2154   1.217       .  S
C2139      C2179   1.486       .  S
C2139      O2142   1.253       .  A
C2139      O2165   1.217       .  S
O2140     Mn2998   2.119       .  S
O2140     Mn2141   2.160       .  S
O2140     Mn2174   2.120       .  S
O2140     Mn2156   2.163       .  S
Mn2141     O3008   2.107       .  S
Mn2141     O2146   2.109       .  S
O2142     Mn2994   2.108   1_545  S
O2143     Mn2150   2.073       .  S
O2143      C2145   1.267       .  A
C2144      C2235   1.487       .  S
C2144      O2170   1.254       .  A
C2144      O2157   1.218       .  S
C2145      C2444   1.488       .  S
O2146      C2171   1.253       .  A
O2147     Mn2150   2.123       .  S
O2147     Mn2169   2.120       .  S
O2148     Mn2152   1.955       .  S
O2148     Mn2174   1.951       .  S
O2148      C2171   1.214       .  S
C2149      C2291   1.490       .  S
C2149      O3013   1.272       .  A
C2149      O2151   1.270       .  A
Mn2150     O2163   2.096       .  S
O2151     Mn2174   2.080       .  S
Mn2152     O2168   2.097       .  S
Mn2152     O2162   1.958       .  S
O2153     Mn2158   2.094       .  S
C2154      C2319   1.480       .  S
C2154      O2172   1.252       .  A
C2155      C2276   1.496       .  S
C2155      O2168   1.273       .  A
Mn2156     O2980   2.106       .  S
O2157     Mn2160   1.959       .  S
Mn2158     O2176   1.960       .  S
C2159      C2220   1.499       .  S
Mn2160     O2167   2.085       .  S
Mn2160     O2175   2.105       .  S
Mn2160     O2978   2.123   1_545  S
Mn2160     O2165   1.955       .  S
C2161      C2347   1.495       .  S
C2161      O3005   1.271       .  A
C2161      O2177   1.274       .  A
O2162     Mn2174   1.957       .  S
O2162      C2164   1.218       .  S
C2164      C2403   1.476       .  S
O2166     Mn2169   2.078       .  S
O2167      C2999   1.269   1_545  A
Mn2169     O2976   1.959   1_545  S
Mn2169     O3014   1.961   1_545  S
O2170     Mn2979   2.108   1_545  S
C2171      C2459   1.479       .  S
O2173      C2178   1.251       .  A
Mn2174     O2177   2.102       .  S
O2175      C2987   1.273   1_545  A
O2176     Mn3007   1.973       .  S
O2176      C2178   1.222       .  S
C2178      C2375   1.488       .  S
C2179      C2180   1.415       .  A
C2180      C2181   1.396       .  A
C2180      N2185   1.433       .  S
C2181      C2182   1.398       .  A
C2181      H2186   1.084       .  S
C2182      C2187   1.482       .  S
C2183      C2184   1.413       .  A
C2183      N2188   1.437       .  S
C2184      H2189   1.083       .  S
N2185      H2205   1.045       .  S
N2185      H2206   1.045       .  S
C2187      C2190   1.402       .  A
C2187      C2194   1.411   1_655  A
N2188      H2203   1.045       .  S
N2188      H2204   1.046       .  S
C2191      C2192   1.418       .  A
C2191      N2196   1.438       .  S
C2193      C2194   1.403       .  A
C2193      H2197   1.084       .  S
C2194      N2198   1.438       .  S
N2196      H2199   1.046       .  S
N2196      H2200   1.045       .  S
N2198      H2201   1.046       .  S
N2198      H2202   1.046       .  S
C2207      C2208   1.415   1_654  A
C2208      C2209   1.404       .  A
C2209      C2210   1.403   1_455  A
C2210      C2215   1.494       .  S
C2210      C2211   1.414       .  A
C2211      N2216   1.438   1_556  S
C2212      H2217   1.083       .  S
N2213      H2233   1.046       .  S
N2213      H2234   1.046       .  S
C2215      C2218   1.402       .  A
N2216      H2232   1.046       .  S
C2218      C2219   1.406       .  A
C2218      H2223   1.084       .  S
C2219      C2220   1.418       .  A
C2219      N2224   1.431       .  S
C2221      C2222   1.405       .  A
C2221      H2225   1.083       .  S
C2222      N2226   1.437       .  S
N2224      H2227   1.046       .  S
N2224      H2228   1.046       .  S
N2226      H2229   1.043       .  S
N2226      H2230   1.046       .  S
C2235      C2236   1.414       .  A
C2235      C2240   1.406       .  A
C2236      C2237   1.397       .  A
C2236      N2241   1.433   1_655  S
C2237      C2238   1.400       .  A
C2237      H2242   1.084       .  S
C2238      C2243   1.489       .  S
C2238      C2239   1.414       .  A
C2239      C2240   1.411       .  A
C2239      N2244   1.437       .  S
C2240      H2245   1.083       .  S
N2241      H2261   1.045   1_455  S
N2241      H2262   1.046       .  S
C2243      C2250   1.414       .  A
N2244      H2260   1.046       .  S
C2246      C2247   1.410       .  A
C2246      H2251   1.084       .  S
C2247      N2252   1.438       .  S
C2248      C2249   1.403       .  A
C2249      C2250   1.405       .  A
C2249      H2253   1.084       .  S
C2250      N2254   1.438       .  S
N2252      H2255   1.046       .  S
N2252      H2256   1.046       .  S
N2254      H2257   1.046       .  S
N2254      H2258   1.045       .  S
C2263      C2268   1.407       .  A
C2264      C2265   1.400       .  A
C2264      N2269   1.433       .  S
C2265      H2270   1.084       .  S
C2266      C2271   1.488       .  S
C2266      C2267   1.411       .  A
C2267      C2268   1.409       .  A
C2267      N2272   1.437   1_655  S
C2268      H2273   1.083   1_655  S
N2269      H2289   1.046       .  S
N2269      H2290   1.046       .  S
C2271      C2278   1.410       .  A
N2272      H2287   1.046       .  S
N2272      H2288   1.046   1_455  S
C2274      C2275   1.404       .  A
C2274      H2279   1.084       .  S
C2275      N2280   1.432       .  S
C2276      C2277   1.410       .  A
C2277      C2278   1.408       .  A
C2277      H2281   1.083       .  S
C2278      N2282   1.437       .  S
N2280      H2283   1.045       .  S
N2280      H2284   1.045       .  S
N2282      H2285   1.045       .  S
N2282      H2286   1.045       .  S
C2291      C2292   1.415       .  A
C2291      C2296   1.411       .  A
C2292      C2293   1.401       .  A
C2292      N3135   1.431       .  S
C2293      C2294   1.400       .  A
C2293      H3136   1.084       .  S
C2294      C2299   1.478       .  S
C2294      C2295   1.407       .  A
C2295      C2296   1.404       .  A
C2295      N2300   1.438       .  S
C2296      H2301   1.083       .  S
N2297      C3130   1.432       .  S
N2297      H2317   1.046       .  S
N2297      H2318   1.046       .  S
H2298      C3131   1.084   1_545  S
C2299      C2302   1.400       .  A
C2299      C2306   1.408   1_556  A
N2300      H2315   1.046       .  S
N2300      H2316   1.046       .  S
C2302      C2303   1.400       .  A
C2302      H3145   1.084       .  S
C2303      C2304   1.413   1_556  A
C2303      N3146   1.433       .  S
C2305      H2309   1.083       .  S
H2307      C3140   1.084       .  S
N2308      C3141   1.433       .  S
N2308      H2311   1.046       .  S
N2308      H2312   1.046       .  S
N2310      H2313   1.046       .  S
C2319      C2320   1.413       .  A
C2319      C2324   1.405       .  A
C2320      C2321   1.396       .  A
C2320      N3163   1.433       .  S
C2321      C2322   1.400       .  A
C2321      H3164   1.084       .  S
C2322      C2327   1.483       .  S
C2322      C2323   1.412       .  A
C2323      C2324   1.409       .  A
C2323      N2328   1.437       .  S
C2324      H2329   1.084       .  S
N2325      C3158   1.433   1_545  S
N2325      H2345   1.045       .  S
N2325      H2346   1.046   1_545  S
H2326      C3159   1.084       .  S
C2327      C3168   1.401       .  A
C2327      C2334   1.411       .  A
N2328      H2343   1.046       .  S
C2330      C3165   1.404   1_554  A
C2330      H2335   1.083       .  S
C2331      C3170   1.415       .  A
C2331      N2336   1.438   1_565  S
C2332      C3169   1.420       .  A
C2333      C2334   1.401       .  A
C2333      H2337   1.083       .  S
C2334      N2338   1.437       .  S
N2336      H2339   1.046       .  S
N2336      H2340   1.046       .  S
N2338      H2341   1.046       .  S
N2338      H2342   1.042       .  S
C2347      C2348   1.417       .  A
C2347      C2352   1.409       .  A
C2348      C2349   1.402       .  A
C2348      N2353   1.431       .  S
C2349      C2350   1.400       .  A
C2349      H2354   1.084       .  S
C2350      C2355   1.489       .  S
C2350      C2351   1.412       .  A
C2351      C2352   1.409       .  A
C2351      N2356   1.438       .  S
C2352      H2357   1.083       .  S
N2353      H2373   1.043       .  S
N2353      H2374   1.046       .  S
C2355      C2358   1.404       .  A
C2355      C2362   1.412       .  A
N2356      H2371   1.046       .  S
N2356      H2372   1.046       .  S
C2358      C2359   1.409       .  A
C2358      H3201   1.084       .  S
C2359      C2360   1.414       .  A
C2359      N3202   1.438       .  S
C2360      C2361   1.405       .  A
C2361      C2362   1.404       .  A
C2361      H2365   1.084       .  S
C2362      N2366   1.438       .  S
H2363      C3196   1.084       .  S
N2364      C3197   1.438       .  S
N2364      H2367   1.046       .  S
N2364      H2368   1.046       .  S
N2366      H2369   1.046       .  S
N2366      H2370   1.045       .  S
C2375      C2376   1.417       .  A
C2375      C2380   1.406       .  A
C2376      C2377   1.411       .  A
C2376      N2381   1.438       .  S
C2377      C2378   1.403       .  A
C2377      H2382   1.083       .  S
C2378      C2383   1.486       .  S
C2378      C2379   1.409       .  A
C2379      C2380   1.401       .  A
C2379      N2384   1.439       .  S
C2380      H2385   1.084       .  S
N2381      H2401   1.046       .  S
N2381      H2402   1.046       .  S
C2383      C2386   1.403       .  A
C2383      C2390   1.411       .  A
N2384      H2399   1.046       .  S
N2384      H2400   1.046       .  S
C2386      C2387   1.402       .  A
C2386      H3229   1.084       .  S
C2387      C2388   1.411       .  A
C2387      N3230   1.438       .  S
C2388      C2389   1.407       .  A
C2389      C2390   1.409       .  A
C2389      H2393   1.084       .  S
C2390      N2394   1.438       .  S
H2391      C3224   1.084   1_545  S
N2392      C3225   1.438   1_545  S
N2392      H2395   1.046       .  S
N2392      H2396   1.046       .  S
N2394      H2397   1.046       .  S
N2394      H2398   1.046       .  S
C2403      C2404   1.414       .  A
C2403      C2408   1.403       .  A
C2404      C2405   1.406       .  A
C2404      N2409   1.438       .  S
C2405      C2406   1.403       .  A
C2405      H2410   1.083       .  S
C2406      C2411   1.479       .  S
C2406      C2407   1.409       .  A
C2407      C2408   1.396       .  A
C2407      N2412   1.439       .  S
C2408      H2413   1.084       .  S
N2409      H2429   1.046       .  S
N2409      H2430   1.046       .  S
C2411      C2414   1.401       .  A
C2411      C2418   1.410       .  A
N2412      H2427   1.046       .  S
N2412      H2428   1.046       .  S
C2414      C2415   1.399       .  A
C2414      H2419   1.084       .  S
C2415      N2420   1.438       .  S
C2416      C2417   1.405       .  A
C2417      H2421   1.084       .  S
C2418      N2422   1.438   1_556  S
N2420      H2423   1.046       .  S
N2420      H2424   1.046       .  S
N2422      H2426   1.046   1_554  S
C2431      C2432   1.417       .  A
C2431      C2436   1.409   1_554  A
C2432      C2433   1.408   1_554  A
C2433      C2434   1.402       .  A
C2433      H2438   1.084   1_556  S
C2434      C2439   1.478       .  S
C2434      C2435   1.406       .  A
C2435      C2436   1.398       .  A
C2435      N2440   1.439       .  S
C2436      H2441   1.083       .  S
N2437      H2457   1.046       .  S
C2439      C2442   1.398       .  A
C2439      C2446   1.408       .  A
N2440      H2455   1.046       .  S
N2440      H2456   1.046       .  S
C2442      C2443   1.398       .  A
C2442      H2447   1.084       .  S
C2443      C2444   1.419       .  A
C2443      N2448   1.433       .  S
C2444      C2445   1.408       .  A
C2445      C2446   1.405       .  A
C2445      H2449   1.083       .  S
C2446      N2450   1.438       .  S
N2448      H2451   1.046       .  S
N2448      H2452   1.045       .  S
N2450      H2453   1.046       .  S
C2459      C2460   1.414       .  A
C2459      C2464   1.404       .  A
C2460      C2461   1.395       .  A
C2460      N2465   1.434       .  S
C2461      C2462   1.399       .  A
C2461      H2466   1.084       .  S
C2462      C2467   1.482       .  S
C2462      C2463   1.412       .  A
C2463      C2464   1.408       .  A
C2463      N2468   1.437       .  S
C2464      H2469   1.083       .  S
N2465      H2485   1.046       .  S
N2465      H2486   1.046       .  S
C2467      C2470   1.402       .  A
C2467      C2474   1.412       .  A
N2468      H2483   1.046       .  S
N2468      H2484   1.045       .  S
C2470      C2471   1.402       .  A
C2470      H2475   1.084       .  S
C2471      C2472   1.412       .  A
C2471      N2476   1.432       .  S
C2472      C2473   1.404       .  A
C2473      C2474   1.402       .  A
C2473      H2477   1.084       .  S
C2474      N2478   1.438       .  S
N2476      H2479   1.046       .  S
N2476      H2480   1.046       .  S
N2478      H2481   1.046       .  S
N2478      H2482   1.045       .  S
C2487      C2488   1.416       .  A
C2487      C2492   1.405       .  A
C2488      C2489   1.405       .  A
C2488      N2493   1.432       .  S
C2489      C2490   1.401       .  A
C2489      H2494   1.084       .  S
C2490      C2495   1.480       .  S
C2490      C2491   1.407       .  A
C2491      C2492   1.397       .  A
C2491      N2496   1.433       .  S
C2492      H2497   1.084       .  S
N2493      H2513   1.046       .  S
N2493      H2514   1.046       .  S
C2495      C2498   1.399       .  A
C2495      C2502   1.410       .  A
N2496      H2511   1.046       .  S
N2496      H2512   1.046       .  S
C2498      C2499   1.398       .  A
C2498      H2503   1.084       .  S
C2499      C2500   1.418       .  A
C2499      N2504   1.433       .  S
C2500      C2501   1.409       .  A
C2501      C2502   1.406       .  A
C2501      H2505   1.083       .  S
C2502      N2506   1.438       .  S
N2504      H2507   1.046       .  S
N2504      H2508   1.046       .  S
N2506      H2509   1.046       .  S
N2506      H2510   1.046       .  S
C2515      N2516   1.359       .  A
C2515      N2520   1.358       .  A
C2515      C2906   1.487       .  S
N2516      C2517   1.357       .  A
C2517      N2518   1.357       .  A
C2517      C2525   1.461       .  S
N2518      C2519   1.353       .  A
C2519      N2520   1.356       .  A
C2519      C2891   1.481       .  S
C2521      N2522   1.358       .  A
C2521      N2526   1.360       .  A
C2521      C3269   1.484       .  S
N2522      C2523   1.355       .  A
C2523      N2524   1.353       .  A
C2523      C2835   1.477       .  S
N2524      C2525   1.355       .  A
C2525      N2526   1.360       .  A
C2527      N2528   1.362       .  A
C2527      N2532   1.356       .  A
C2527      C2779   1.497       .  S
N2528      C2529   1.365       .  A
C2529      N2530   1.361       .  A
C2529      C2535   1.472       .  S
N2530      C2531   1.357       .  A
C2531      N2532   1.354       .  A
C2531      C2807   1.481       .  S
C2533      N2534   1.360       .  A
C2533      N2538   1.357       .  A
C2533      C3142   1.484       .  S
N2534      C2535   1.360       .  A
C2535      N2536   1.361       .  A
N2536      C2537   1.359       .  A
C2537      N2538   1.357       .  A
C2537      C2751   1.491       .  S
C2539      N2540   1.362       .  A
C2539      N2544   1.361       .  A
C2539      C2682   1.485       .  S
N2540      C2541   1.361       .  A
C2541      N2542   1.357       .  A
C2541      C2667   1.493       .  S
N2542      C2543   1.359       .  A
C2543      N2544   1.359       .  A
C2543      C2547   1.472       .  S
C2545      N2546   1.364       .  A
C2545      N2550   1.358       .  A
C2545      C3045   1.491       .  S
N2546      C2547   1.363       .  A
C2547      N2548   1.358       .  A
N2548      C2549   1.355       .  A
C2549      N2550   1.356       .  A
C2549      C2611   1.479       .  S
O2551     Mn2577   2.099       .  S
C2552      C2919   1.488       .  S
C2552      O2585   1.269       .  A
C2552      O2582   1.272       .  A
O2553     Mn2560   2.170       .  S
O2553     Mn2571   2.124       .  S
O2553     Mn2575   2.164       .  S
O2554     Mn2588   2.103       .  S
O2554      C2564   1.274       .  A
O2555     Mn2571   2.095       .  S
O2555      C2578   1.272       .  A
O2556     Mn2575   2.090       .  S
O2556      C2583   1.251       .  A
O2557     Mn2577   1.954       .  S
O2557      C2573   1.215       .  S
C2558      C2598   1.485       .  S
C2558      O2561   1.253       .  A
C2558      O2584   1.217       .  S
O2559     Mn2560   2.159       .  S
O2559     Mn2593   2.122       .  S
O2559     Mn2575   2.168       .  S
Mn2560     O2565   2.089       .  S
O2562     Mn2569   2.070       .  S
O2562      C2564   1.267       .  A
C2563      C2654   1.490       .  S
C2563      O2589   1.255       .  A
C2563      O2576   1.221       .  S
C2564      C2863   1.488       .  S
O2565      C2590   1.250       .  A
O2566     Mn2569   2.125       .  S
O2566     Mn2588   2.121       .  S
O2567     Mn2571   1.955       .  S
O2567     Mn2593   1.950       .  S
O2567      C2590   1.217       .  S
C2568      C2710   1.485       .  S
C2568      O2570   1.270       .  A
Mn2569     O2582   2.093       .  S
O2570     Mn2593   2.080       .  S
Mn2571     O2587   2.094       .  S
Mn2571     O2581   1.967       .  S
O2572     Mn2577   2.095       .  S
C2573      C2738   1.476       .  S
C2573      O2591   1.252       .  A
C2574      C2695   1.494       .  S
C2574      O2587   1.272       .  A
O2576     Mn2579   1.965       .  S
Mn2577     O2595   1.959       .  S
C2578      C2639   1.496       .  S
Mn2579     O2586   2.079       .  S
Mn2579     O2594   2.100       .  S
Mn2579     O2584   1.950       .  S
C2580      C2766   1.495       .  S
C2580      O2596   1.272       .  A
O2581     Mn2593   1.960       .  S
O2581      C2583   1.221       .  S
C2583      C2822   1.482       .  S
O2585     Mn2588   2.082       .  S
C2590      C2878   1.474       .  S
O2592      C2597   1.251       .  A
Mn2593     O2596   2.093       .  S
O2595      C2597   1.219       .  S
C2597      C2794   1.485       .  S
C2598      C2599   1.414       .  A
C2599      C2600   1.397       .  A
C2599      N2604   1.433       .  S
C2600      C2601   1.400       .  A
C2600      H2605   1.084       .  S
C2601      C2606   1.483       .  S
C2602      C2603   1.410       .  A
C2602      N2607   1.437       .  S
C2603      H2608   1.083       .  S
N2604      H2624   1.046       .  S
N2604      H2625   1.045       .  S
C2606      C2609   1.403       .  A
C2606      C2613   1.408   1_655  A
N2607      H2622   1.046       .  S
N2607      H2623   1.046       .  S
C2609      C3029   1.407       .  A
C2609      H3033   1.084       .  S
C2610      C3028   1.404   1_554  A
C2610      C2611   1.411       .  A
C2610      N2615   1.432       .  S
C2611      C3031   1.403   1_654  A
C2612      C3030   1.404   1_455  A
C2612      C2613   1.400       .  A
C2612      H2616   1.084       .  S
C2613      N2617   1.433       .  S
H2614      C3028   1.084   1_554  S
N2615      H2618   1.046       .  S
N2615      H2619   1.046       .  S
N2617      H2620   1.046       .  S
N2617      H2621   1.046       .  S
C2626      C2964   1.489       .  S
C2626      C2627   1.416   1_655  A
C2626      C3050   1.407       .  A
C2627      C2628   1.399       .  A
C2628      C2629   1.399   1_455  A
C2629      C2634   1.483       .  S
C2629      C2630   1.411       .  A
C2630      C3050   1.410       .  A
C2630      N2635   1.437       .  S
C2631      C3045   1.407       .  A
C2631      C3049   1.410   1_554  A
C2631      H2636   1.083       .  S
N2632      H2652   1.046       .  S
N2632      H2653   1.046       .  S
C2634      C2637   1.399       .  A
N2635      H3069   1.046       .  S
N2635      H2651   1.046       .  S
C2637      C2638   1.407       .  A
C2637      H2642   1.084       .  S
C2638      C2639   1.422       .  A
C2638      N2643   1.436       .  S
C2640      C2641   1.408       .  A
C2640      H2644   1.084       .  S
C2641      N2645   1.432       .  S
N2643      H2646   1.046       .  S
N2643      H2647   1.043       .  S
N2645      H2648   1.046       .  S
N2645      H2649   1.045       .  S
H2650      N3054   1.046       .  S
C2654      C2655   1.413       .  A
C2654      C2659   1.408       .  A
C2655      C2656   1.401       .  A
C2655      N2660   1.433   1_655  S
C2656      C2657   1.401       .  A
C2656      H2661   1.084       .  S
C2657      C2662   1.490       .  S
C2657      C2658   1.413       .  A
C2658      C2659   1.414       .  A
C2658      N2663   1.437       .  S
C2659      H2664   1.083       .  S
N2660      H2680   1.046   1_455  S
N2660      H2681   1.045       .  S
C2662      C2669   1.411       .  A
N2663      H2679   1.046       .  S
C2665      C2666   1.404       .  A
C2665      H2670   1.084       .  S
C2666      N2671   1.432       .  S
C2667      C2668   1.406       .  A
C2668      C2669   1.407       .  A
C2668      H2672   1.084       .  S
C2669      N2673   1.437       .  S
N2671      H2674   1.046       .  S
N2671      H2675   1.046       .  S
N2673      H2676   1.046       .  S
N2673      H2677   1.045       .  S
C2682      C2687   1.406       .  A
C2683      C2684   1.402       .  A
C2683      N2688   1.432       .  S
C2684      H2689   1.084       .  S
C2685      C2690   1.488       .  S
C2685      C2686   1.411       .  A
C2686      C2687   1.409       .  A
C2686      N2691   1.438   1_655  S
C2687      H2692   1.084   1_655  S
N2688      H2708   1.046       .  S
N2688      H2709   1.046       .  S
C2690      C2697   1.410       .  A
N2691      H2706   1.046       .  S
N2691      H2707   1.046   1_455  S
C2693      C2694   1.404       .  A
C2693      H2698   1.084       .  S
C2694      N2699   1.431       .  S
C2695      C2696   1.410       .  A
C2696      C2697   1.409       .  A
C2696      H2700   1.084       .  S
C2697      N2701   1.437       .  S
N2699      H2702   1.046       .  S
N2699      H2703   1.045       .  S
N2701      H2704   1.045       .  S
N2701      H2705   1.045       .  S
C2710      C2711   1.415   1_565  A
C2710      C2715   1.409       .  A
C2711      C2712   1.401   1_545  A
C2712      C2713   1.399       .  A
C2713      C2718   1.473       .  S
C2713      C2714   1.406       .  A
C2714      C2715   1.402       .  A
C2714      N2719   1.438       .  S
C2715      H2720   1.083       .  S
N2716      H2736   1.046       .  S
N2716      H2737   1.046       .  S
C2718      C2721   1.399       .  A
C2718      C2725   1.407       .  A
N2719      H2734   1.046       .  S
N2719      H2735   1.046       .  S
C2721      C2722   1.397       .  A
C2722      C2723   1.412       .  A
C2723      C2952   1.478       .  S
C2723      C3143   1.406       .  A
C2724      C3142   1.407       .  A
C2724      C3144   1.408   1_554  A
C2724      H2728   1.083       .  S
C2725      C3143   1.406       .  A
C2725      N3148   1.437       .  S
N2727      H2730   1.046       .  S
N2727      H2731   1.046       .  S
N2729      C3144   1.437   1_554  S
N2729      H2732   1.046   1_565  S
N2729      H3152   1.046       .  S
H2733      N3148   1.046       .  S
C2738      C2739   1.414       .  A
C2738      C2743   1.403       .  A
C2739      C2740   1.395       .  A
C2740      C2741   1.399       .  A
C2741      C2746   1.480       .  S
C2741      C2742   1.411       .  A
C2742      C2743   1.407       .  A
C2742      N2747   1.437       .  S
C2743      H2748   1.083       .  S
N2744      H2764   1.045       .  S
N2744      H2765   1.046       .  S
C2746      C2753   1.410       .  A
N2747      H2762   1.045       .  S
N2747      H3182   1.045       .  S
C2749      C3169   1.406       .  A
C2749      H2754   1.084       .  S
C2750      C3168   1.407   1_554  A
C2750      N2755   1.438       .  S
C2751      C3171   1.407   1_554  A
C2752      C3170   1.405       .  A
C2752      C2753   1.400       .  A
C2752      H2756   1.083       .  S
C2753      N2757   1.439       .  S
N2755      H2758   1.046       .  S
N2755      H2759   1.046       .  S
N2757      H2760   1.046       .  S
N2757      H2761   1.045       .  S
H2763      N3166   1.045       .  S
C2766      C2767   1.419   1_565  A
C2766      C2771   1.410       .  A
C2767      C2768   1.407       .  A
C2767      N2772   1.438       .  S
C2768      C2769   1.403   1_545  A
C2768      H2773   1.084       .  S
C2769      C2774   1.488       .  S
C2769      C2770   1.409       .  A
C2770      C2771   1.406       .  A
C2770      N2775   1.438       .  S
C2771      H2776   1.082       .  S
N2772      H2792   1.045       .  S
N2772      H2793   1.046       .  S
C2774      C2777   1.405       .  A
C2774      C2781   1.408       .  A
N2775      H2790   1.046       .  S
N2775      H2791   1.045       .  S
C2777      C2778   1.413       .  A
C2778      C2779   1.418       .  A
C2779      C2780   1.410       .  A
C2780      C2781   1.401       .  A
C2780      H2784   1.082       .  S
C2781      N2785   1.439       .  S
N2783      H2786   1.046       .  S
N2783      H2787   1.046       .  S
N2785      H2788   1.046       .  S
N2785      H2789   1.046       .  S
C2794      C2795   1.415       .  A
C2794      C2799   1.406       .  A
C2795      C2796   1.410       .  A
C2795      N2800   1.437       .  S
C2796      C2797   1.404       .  A
C2796      H2801   1.083       .  S
C2797      C2802   1.484       .  S
C2797      C2798   1.409       .  A
C2798      C2799   1.399       .  A
C2798      N2803   1.439       .  S
C2799      H2804   1.084       .  S
N2800      H2820   1.045       .  S
N2800      H2821   1.046       .  S
C2802      C2805   1.400       .  A
C2802      C2809   1.412       .  A
N2803      H2818   1.046       .  S
N2803      H2819   1.046       .  S
C2805      C2806   1.400       .  A
C2806      C2807   1.414       .  A
C2807      C2808   1.406       .  A
C2808      C2809   1.410       .  A
C2808      H2812   1.084       .  S
C2809      N2813   1.438       .  S
N2811      H2814   1.046       .  S
N2811      H2815   1.046       .  S
N2813      H2816   1.046       .  S
N2813      H2817   1.046       .  S
C2822      C2823   1.415       .  A
C2822      C2827   1.404       .  A
C2823      C2824   1.408       .  A
C2823      N2828   1.438       .  S
C2824      C2825   1.403       .  A
C2824      H2829   1.083       .  S
C2825      C2830   1.484       .  S
C2825      C2826   1.410       .  A
C2826      C2827   1.399       .  A
C2826      N2831   1.439       .  S
C2827      H2832   1.084       .  S
N2828      H2848   1.046       .  S
N2828      H2849   1.046       .  S
C2830      C2833   1.402       .  A
C2830      C2837   1.411       .  A
N2831      H2846   1.046       .  S
N2831      H2847   1.046       .  S
C2833      C2834   1.401       .  A
C2833      H2838   1.084       .  S
C2834      C3254   1.413       .  A
C2834      N2839   1.438       .  S
C2835      C3253   1.412   1_554  A
C2835      C2836   1.407       .  A
C2836      C3256   1.404       .  A
C2836      H2840   1.084       .  S
C2837      C3255   1.407       .  A
C2837      N2841   1.438       .  S
N2839      H2842   1.046       .  S
N2839      H2843   1.046       .  S
N2841      H3263   1.046       .  S
N2841      H2845   1.046       .  S
H2844      N3260   1.046       .  S
C2850      C2940   1.495       .  S
C2850      C2851   1.421       .  A
C2850      C2855   1.410       .  A
C2851      C2852   1.409       .  A
C2851      N3275   1.436       .  S
C2852      C2853   1.399       .  A
C2852      H2857   1.084       .  S
C2853      C2858   1.476       .  S
C2853      C2854   1.405       .  A
C2854      C2855   1.400       .  A
C2854      N2859   1.439       .  S
C2855      H2860   1.083       .  S
N2856      C3270   1.438       .  S
N2856      H2876   1.046       .  S
N2856      H3296   1.046       .  S
C2858      C2861   1.397       .  A
C2858      C2865   1.408       .  A
N2859      H2874   1.046       .  S
N2859      H2875   1.046       .  S
C2861      C2862   1.398       .  A
C2861      H2866   1.084       .  S
C2862      C2863   1.419       .  A
C2862      N2867   1.433       .  S
C2863      C2864   1.407       .  A
C2864      C2865   1.406       .  A
C2864      H2868   1.082       .  S
C2865      N2869   1.438       .  S
N2867      H2870   1.046       .  S
N2867      H2871   1.045       .  S
N2869      H2872   1.046       .  S
N2869      H3292   1.046       .  S
H2873      N3288   1.046       .  S
H2877      N3275   1.046       .  S
C2878      C2879   1.411       .  A
C2878      C2883   1.405       .  A
C2879      C2880   1.393       .  A
C2879      N2884   1.433       .  S
C2880      C2881   1.400       .  A
C2880      H2885   1.084       .  S
C2881      C2886   1.479       .  S
C2881      C2882   1.411       .  A
C2882      C2883   1.407       .  A
C2882      N2887   1.437       .  S
C2883      H2888   1.084       .  S
N2884      H2904   1.046       .  S
N2884      H2905   1.046       .  S
C2886      C2889   1.402       .  A
C2886      C2893   1.410       .  A
N2887      H2902   1.046       .  S
N2887      H2903   1.045       .  S
C2889      C2890   1.407       .  A
C2889      H2894   1.084       .  S
C2890      C2891   1.417       .  A
C2890      N2895   1.438       .  S
C2891      C2892   1.403       .  A
C2892      C2893   1.398       .  A
C2892      H2896   1.084       .  S
C2893      N2897   1.439       .  S
N2895      H2898   1.046       .  S
N2895      H2899   1.045       .  S
N2897      H2900   1.046       .  S
N2897      H2901   1.044       .  S
C2906      C2907   1.418       .  A
C2906      C2911   1.408       .  A
C2907      C2908   1.406       .  A
C2907      N2912   1.438       .  S
C2908      C2909   1.399       .  A
C2908      H2913   1.084       .  S
C2909      C2914   1.472       .  S
C2909      C2910   1.405       .  A
C2910      C2911   1.400       .  A
C2910      N2915   1.439       .  S
C2911      H2916   1.083       .  S
N2912      H2932   1.046       .  S
N2912      H2933   1.046       .  S
C2914      C2917   1.397       .  A
C2914      C2921   1.406       .  A
N2915      H2930   1.046       .  S
N2915      H2931   1.045       .  S
C2917      C2918   1.399       .  A
C2917      H2922   1.084       .  S
C2918      C2919   1.418       .  A
C2918      N2923   1.433       .  S
C2919      C2920   1.410       .  A
C2920      C2921   1.405       .  A
C2920      H2924   1.083       .  S
C2921      N2925   1.438       .  S
N2923      H2926   1.046       .  S
N2923      H2927   1.046       .  S
N2925      H2928   1.046       .  S
N2925      H2929   1.045       .  S
C2934      N2935   1.360       .  A
C2934      N2939   1.360       .  A
C2934      C3325   1.494       .  S
N2935      C2936   1.359       .  A
C2936      N2937   1.357       .  A
C2936      C2944   1.467       .  S
N2937      C2938   1.355       .  A
C2938      N2939   1.358       .  A
C2938      C3310   1.490       .  S
C2940      N2941   1.358       .  A
C2940      N2945   1.361       .  A
N2941      C2942   1.355       .  A
C2942      N2943   1.355       .  A
C2942      C3254   1.482       .  S
N2943      C2944   1.358       .  A
C2944      N2945   1.360       .  A
C2946      N2947   1.360       .  A
C2946      N2951   1.358       .  A
C2946      C3198   1.489       .  S
N2947      C2948   1.360       .  A
C2948      N2949   1.358       .  A
C2948      C2954   1.464       .  S
N2949      C2950   1.354       .  A
C2950      N2951   1.356       .  A
C2950      C3226   1.477       .  S
C2952      N2953   1.359       .  A
C2952      N2957   1.356       .  A
N2953      C2954   1.359       .  A
C2954      N2955   1.358       .  A
N2955      C2956   1.356       .  A
C2956      N2957   1.355       .  A
C2956      C3170   1.481       .  S
C2958      N2959   1.362       .  A
C2958      N2963   1.366       .  A
C2958      C3101   1.493       .  S
N2959      C2960   1.358       .  A
C2960      N2961   1.352       .  A
C2960      C3086   1.483       .  S
N2961      C2962   1.356       .  A
C2962      N2963   1.363       .  A
C2962      C2966   1.472       .  S
C2964      N2965   1.365       .  A
C2964      N2969   1.358       .  A
N2965      C2966   1.362       .  A
C2966      N2967   1.360       .  A
N2967      C2968   1.354       .  A
C2968      N2969   1.355       .  A
C2968      C3030   1.483       .  S
O2970     Mn2996   2.091       .  S
C2971      C3338   1.488       .  S
C2971      O3004   1.269       .  A
C2971      O3001   1.273       .  A
O2972     Mn2979   2.165       .  S
O2972     Mn2990   2.122       .  S
O2972     Mn2994   2.165       .  S
O2973     Mn3007   2.097       .  S
O2973      C2983   1.273       .  A
O2974     Mn2990   2.091       .  S
O2974      C2997   1.271       .  A
O2975     Mn2994   2.084       .  S
O2975      C3002   1.250       .  A
O2976     Mn2996   1.956       .  S
O2976      C2992   1.218       .  S
C2977      C3017   1.485       .  S
C2977      O2980   1.253       .  A
C2977      O3003   1.216       .  S
O2978     Mn2979   2.165       .  S
O2978     Mn3012   2.119       .  S
O2978     Mn2994   2.167       .  S
Mn2979     O2984   2.110       .  S
O2981     Mn2988   2.081       .  S
O2981      C2983   1.269       .  A
C2982      C3073   1.487       .  S
C2982      O3008   1.253       .  A
C2982      O2995   1.219       .  S
C2983      C3282   1.491       .  S
O2984      C3009   1.253       .  A
O2985     Mn2988   2.124       .  S
O2985     Mn3007   2.122       .  S
O2986     Mn2990   1.956       .  S
O2986     Mn3012   1.950       .  S
O2986      C3009   1.216       .  S
C2987      C3129   1.490       .  S
C2987      O2989   1.269       .  A
Mn2988     O3001   2.099       .  S
O2989     Mn3012   2.076       .  S
Mn2990     O3006   2.089       .  S
Mn2990     O3000   1.962       .  S
O2991     Mn2996   2.094       .  S
C2992      C3157   1.482       .  S
C2992      O3010   1.253       .  A
C2993      C3114   1.498       .  S
C2993      O3006   1.272       .  A
O2995     Mn2998   1.969       .  S
Mn2996     O3014   1.957       .  S
C2997      C3058   1.497       .  S
Mn2998     O3005   2.088       .  S
Mn2998     O3013   2.098       .  S
Mn2998     O3003   1.951       .  S
C2999      C3185   1.492       .  S
C2999      O3015   1.272       .  A
O3000     Mn3012   1.962       .  S
O3000      C3002   1.220       .  S
C3002      C3241   1.475       .  S
O3004     Mn3007   2.077       .  S
C3009      C3297   1.483       .  S
O3011      C3016   1.251       .  A
Mn3012     O3015   2.096       .  S
O3014      C3016   1.220       .  S
C3016      C3213   1.480       .  S
C3017      C3018   1.415       .  A
C3018      C3019   1.397       .  A
C3018      N3023   1.433       .  S
C3019      C3020   1.399       .  A
C3019      H3024   1.084       .  S
C3020      C3025   1.483       .  S
C3021      C3022   1.415       .  A
C3021      N3026   1.437       .  S
C3022      H3027   1.083       .  S
N3023      H3043   1.045       .  S
N3023      H3044   1.045       .  S
C3025      C3028   1.402       .  A
C3025      C3032   1.412   1_655  A
N3026      H3041   1.045       .  S
N3026      H3042   1.046       .  S
C3029      C3030   1.413       .  A
C3029      N3034   1.432       .  S
C3031      C3032   1.404       .  A
C3031      H3035   1.084       .  S
C3032      N3036   1.438       .  S
N3034      H3037   1.046       .  S
N3034      H3038   1.046       .  S
N3036      H3039   1.046       .  S
N3036      H3040   1.045       .  S
C3045      C3046   1.418   1_654  A
C3046      C3047   1.404       .  A
C3047      C3048   1.401   1_455  A
C3048      C3053   1.488       .  S
C3048      C3049   1.410       .  A
C3049      N3054   1.437   1_556  S
C3050      H3055   1.083       .  S
N3051      H3071   1.046       .  S
N3051      H3072   1.046       .  S
C3053      C3056   1.400       .  A
N3054      H3070   1.046       .  S
C3056      C3057   1.405       .  A
C3056      H3061   1.084       .  S
C3057      C3058   1.419       .  A
C3057      N3062   1.432       .  S
C3059      C3060   1.402       .  A
C3059      H3063   1.084       .  S
C3060      N3064   1.432       .  S
N3062      H3065   1.046       .  S
N3062      H3066   1.045       .  S
N3064      H3067   1.046       .  S
N3064      H3068   1.044       .  S
C3073      C3074   1.414       .  A
C3073      C3078   1.407       .  A
C3074      C3075   1.398       .  A
C3074      N3079   1.433   1_655  S
C3075      C3076   1.399       .  A
C3075      H3080   1.084   1_655  S
C3076      C3081   1.484       .  S
C3076      C3077   1.411       .  A
C3077      C3078   1.412       .  A
C3077      N3082   1.437       .  S
C3078      H3083   1.083       .  S
N3079      H3099   1.045   1_455  S
N3079      H3100   1.046       .  S
C3081      C3088   1.412       .  A
N3082      H3098   1.046       .  S
C3084      C3085   1.409       .  A
C3084      H3089   1.084       .  S
C3085      N3090   1.438       .  S
C3086      C3087   1.403       .  A
C3087      C3088   1.405       .  A
C3087      H3091   1.084       .  S
C3088      N3092   1.437       .  S
N3090      H3093   1.046       .  S
N3090      H3094   1.046       .  S
N3092      H3095   1.045       .  S
N3092      H3096   1.045       .  S
C3101      C3106   1.408       .  A
C3102      C3103   1.401       .  A
C3102      N3107   1.433       .  S
C3103      H3108   1.084       .  S
C3104      C3109   1.491       .  S
C3104      C3105   1.411       .  A
C3105      C3106   1.411       .  A
C3105      N3110   1.437   1_655  S
C3106      H3111   1.083       .  S
N3107      H3127   1.046       .  S
N3107      H3128   1.046       .  S
C3109      C3116   1.409       .  A
N3110      H3125   1.045       .  S
N3110      H3126   1.046   1_455  S
C3112      C3113   1.404       .  A
C3112      H3117   1.084       .  S
C3113      N3118   1.431       .  S
C3114      C3115   1.411       .  A
C3115      C3116   1.406       .  A
C3115      H3119   1.083       .  S
C3116      N3120   1.438       .  S
N3118      H3121   1.045       .  S
N3118      H3122   1.045       .  S
N3120      H3123   1.045       .  S
N3120      H3124   1.046       .  S
C3129      C3130   1.414   1_565  A
C3129      C3134   1.410       .  A
C3130      C3131   1.405   1_545  A
C3131      C3132   1.402       .  A
C3132      C3137   1.479       .  S
C3132      C3133   1.407       .  A
C3133      C3134   1.402       .  A
C3133      N3138   1.438       .  S
C3134      H3139   1.083       .  S
N3135      H3155   1.046       .  S
N3135      H3156   1.046       .  S
C3137      C3140   1.400       .  A
C3137      C3144   1.408       .  A
N3138      H3153   1.046       .  S
N3138      H3154   1.046       .  S
C3140      C3141   1.400       .  A
C3141      C3142   1.413   1_556  A
C3143      H3147   1.083       .  S
N3146      H3149   1.046       .  S
N3146      H3150   1.046       .  S
N3148      H3151   1.046   1_565  S
C3157      C3158   1.411       .  A
C3157      C3162   1.405       .  A
C3158      C3159   1.399       .  A
C3159      C3160   1.403       .  A
C3160      C3165   1.490       .  S
C3160      C3161   1.414       .  A
C3161      C3162   1.410       .  A
C3161      N3166   1.438       .  S
C3162      H3167   1.084       .  S
N3163      H3183   1.045       .  S
N3163      H3184   1.046       .  S
C3165      C3172   1.412       .  A
N3166      H3181   1.046       .  S
C3168      H3173   1.084   1_556  S
C3169      N3174   1.438       .  S
C3171      C3172   1.404       .  A
C3171      H3175   1.083       .  S
C3172      N3176   1.439       .  S
N3174      H3177   1.046       .  S
N3174      H3178   1.046       .  S
N3176      H3179   1.045       .  S
N3176      H3180   1.044       .  S
C3185      C3186   1.417   1_565  A
C3185      C3190   1.408       .  A
C3186      C3187   1.402       .  A
C3186      N3191   1.432       .  S
C3187      C3188   1.400   1_545  A
C3187      H3192   1.084       .  S
C3188      C3193   1.481       .  S
C3188      C3189   1.408       .  A
C3189      C3190   1.405       .  A
C3189      N3194   1.438       .  S
C3190      H3195   1.081       .  S
N3191      H3211   1.045       .  S
N3191      H3212   1.046       .  S
C3193      C3196   1.402       .  A
C3193      C3200   1.407       .  A
N3194      H3209   1.046       .  S
N3194      H3210   1.046       .  S
C3196      C3197   1.408       .  A
C3197      C3198   1.417       .  A
C3198      C3199   1.408       .  A
C3199      C3200   1.401       .  A
C3199      H3203   1.083       .  S
C3200      N3204   1.439   1_565  S
N3202      H3205   1.046       .  S
N3202      H3206   1.046       .  S
N3204      H3207   1.046       .  S
N3204      H3208   1.046   1_545  S
C3213      C3214   1.412       .  A
C3213      C3218   1.404       .  A
C3214      C3215   1.406       .  A
C3214      N3219   1.432       .  S
C3215      C3216   1.403       .  A
C3215      H3220   1.084       .  S
C3216      C3221   1.479       .  S
C3216      C3217   1.409       .  A
C3217      C3218   1.399       .  A
C3217      N3222   1.439       .  S
C3218      H3223   1.084       .  S
N3219      H3239   1.045       .  S
N3219      H3240   1.046   1_565  S
C3221      C3224   1.401       .  A
C3221      C3228   1.410       .  A
N3222      H3237   1.046       .  S
N3222      H3238   1.046       .  S
C3224      C3225   1.400       .  A
C3225      C3226   1.412       .  A
C3226      C3227   1.406       .  A
C3227      C3228   1.407       .  A
C3227      H3231   1.084       .  S
C3228      N3232   1.438       .  S
N3230      H3233   1.046       .  S
N3230      H3234   1.046       .  S
N3232      H3235   1.046       .  S
N3232      H3236   1.046       .  S
C3241      C3242   1.414       .  A
C3241      C3246   1.402       .  A
C3242      C3243   1.406       .  A
C3242      N3247   1.438       .  S
C3243      C3244   1.403       .  A
C3243      H3248   1.084       .  S
C3244      C3249   1.478       .  S
C3244      C3245   1.409       .  A
C3245      C3246   1.397       .  A
C3245      N3250   1.439       .  S
C3246      H3251   1.084       .  S
N3247      H3267   1.045       .  S
N3247      H3268   1.046       .  S
C3249      C3252   1.401       .  A
C3249      C3256   1.409   1_556  A
N3250      H3265   1.046       .  S
N3250      H3266   1.046       .  S
C3252      C3253   1.400       .  A
C3252      H3257   1.084       .  S
C3253      N3258   1.438       .  S
C3254      C3255   1.406       .  A
C3255      H3259   1.084       .  S
C3256      N3260   1.438       .  S
N3258      H3261   1.046       .  S
N3258      H3262   1.046       .  S
N3260      H3264   1.046       .  S
C3269      C3270   1.416       .  A
C3269      C3274   1.406   1_554  A
C3270      C3271   1.408   1_554  A
C3271      C3272   1.403       .  A
C3271      H3276   1.084   1_556  S
C3272      C3277   1.480       .  S
C3272      C3273   1.408       .  A
C3273      C3274   1.400       .  A
C3273      N3278   1.439       .  S
C3274      H3279   1.083       .  S
N3275      H3295   1.045       .  S
C3277      C3280   1.399       .  A
C3277      C3284   1.409       .  A
N3278      H3293   1.046       .  S
N3278      H3294   1.046       .  S
C3280      C3281   1.399       .  A
C3280      H3285   1.084       .  S
C3281      C3282   1.417       .  A
C3281      N3286   1.432       .  S
C3282      C3283   1.409       .  A
C3283      C3284   1.406       .  A
C3283      H3287   1.083       .  S
C3284      N3288   1.438       .  S
N3286      H3289   1.046       .  S
N3286      H3290   1.043       .  S
N3288      H3291   1.046       .  S
C3297      C3298   1.414       .  A
C3297      C3302   1.406       .  A
C3298      C3299   1.397       .  A
C3298      N3303   1.433       .  S
C3299      C3300   1.400       .  A
C3299      H3304   1.084       .  S
C3300      C3305   1.486       .  S
C3300      C3301   1.413       .  A
C3301      C3302   1.411       .  A
C3301      N3306   1.437       .  S
C3302      H3307   1.084       .  S
N3303      H3323   1.046       .  S
N3303      H3324   1.045       .  S
C3305      C3308   1.402       .  A
C3305      C3312   1.410       .  A
N3306      H3321   1.046       .  S
N3306      H3322   1.046       .  S
C3308      C3309   1.409       .  A
C3308      H3313   1.084       .  S
C3309      C3310   1.419       .  A
C3309      N3314   1.438       .  S
C3310      C3311   1.406       .  A
C3311      C3312   1.402       .  A
C3311      H3315   1.083       .  S
C3312      N3316   1.438       .  S
N3314      H3317   1.046       .  S
N3314      H3318   1.045       .  S
N3316      H3319   1.045       .  S
N3316      H3320   1.045       .  S
C3325      C3326   1.420       .  A
C3325      C3330   1.409       .  A
C3326      C3327   1.409       .  A
C3326      N3331   1.437       .  S
C3327      C3328   1.399       .  A
C3327      H3332   1.084       .  S
C3328      C3333   1.477       .  S
C3328      C3329   1.405       .  A
C3329      C3330   1.401       .  A
C3329      N3334   1.438       .  S
C3330      H3335   1.083       .  S
N3331      H3351   1.046       .  S
N3331      H3352   1.046       .  S
C3333      C3336   1.397       .  A
C3333      C3340   1.408       .  A
N3334      H3349   1.046       .  S
N3334      H3350   1.046       .  S
C3336      C3337   1.398       .  A
C3336      H3341   1.084       .  S
C3337      C3338   1.417       .  A
C3337      N3342   1.433       .  S
C3338      C3339   1.409       .  A
C3339      C3340   1.408       .  A
C3339      H3343   1.083       .  S
C3340      N3344   1.437       .  S
N3342      H3345   1.046       .  S
N3342      H3346   1.046       .  S
N3344      H3347   1.046       .  S
N3344      H3348   1.046       .  S
