geometry optimzed in LAMMPS
_audit_creation_date              2020-11-30 
_audit_creation_method            'lammps2cif' 
_symmetry_space_group_name_H-M    'P1' 
_symmetry_Int_Tables_number       1 
_symmetry_cell_setting            triclinic 
loop_ 
_symmetry_equiv_pos_as_xyz 
  x,y,z 
_cell_length_a                    43.647565083961325 
_cell_length_b                    43.64077011603713 
_cell_length_c                    43.64106156684329 
_cell_angle_alpha                 90.06935833586992 
_cell_angle_beta                  90.33960572000065 
_cell_angle_gamma                 89.9209765169984 
loop_ 
_atom_site_label 
_atom_site_type_symbol 
_atom_site_fract_x 
_atom_site_fract_y 
_atom_site_fract_z 
_atom_site_charge 
O1          O  0.74071994  0.44821795  0.57081961    -0.85930
O2          O  0.77551587  0.46245152  0.52114142    -0.82970
C3          C  0.78786053  0.48637095  0.53203862     0.97530
O4          O  0.80866881  0.48417156  0.55220704    -0.83010
O5          O  0.84506643  0.46042661  0.59916827    -0.85650
C6          C  0.83075463  0.46420019  0.62396049     1.02060
O7          O  0.80502420  0.45164592  0.62765360    -0.78410
O8          O  0.75128134  0.42172628  0.61232520    -0.78600
C9          C  0.73720436  0.44345114  0.59919102     1.02010
O10         O  0.75105294  0.38315296  0.55936716    -0.85920
O11         O  0.79336743  0.39755034  0.51536045    -0.82990
C12         C  0.81816264  0.40842280  0.50525433     0.97550
O13         O  0.82572141  0.43482178  0.51392917    -0.83020
O14         O  0.85610606  0.40808636  0.56227745    -0.85620
C15         C  0.85839250  0.39402736  0.58731841     1.02030
O16         O  0.83977508  0.39864804  0.60902102    -0.78440
O17         O  0.78746757  0.37032819  0.59139325    -0.78590
C18         C  0.76686474  0.36287831  0.57262047     1.01990
Cr19       Cr  0.76710545  0.42303335  0.54343060     1.93740
Cr20       Cr  0.83158084  0.44572520  0.55776235     1.93210
Cr21       Cr  0.79574417  0.41171804  0.60739991     1.39100
O22         O  0.79803095  0.42691169  0.56988420    -1.23680
O23         O  0.59930419  0.74586681  0.40613903    -0.85930
O24         O  0.54981465  0.77914209  0.42405263    -0.82970
C25         C  0.56121919  0.79189237  0.44772086     0.97530
O26         O  0.57802896  0.81520734  0.44528669    -0.83010
O27         O  0.62249992  0.85270499  0.42194865    -0.85650
C28         C  0.64623568  0.83779510  0.42914582     1.02060
O29         O  0.65190470  0.81275933  0.41586109    -0.78410
O30         O  0.64108921  0.75990473  0.38251518    -0.78600
C31         C  0.62750960  0.74245053  0.40119470     1.02010
O32         O  0.58742211  0.76021439  0.34228837    -0.85920
O33         O  0.54163146  0.79796984  0.35925177    -0.82990
C34         C  0.52900827  0.82122520  0.37051891     0.97550
O35         O  0.53810823  0.83103023  0.39611618    -0.83020
O36         O  0.58572354  0.86241634  0.36898340    -0.85620
C37         C  0.61158523  0.86667349  0.35697021     1.02030
O38         O  0.63415234  0.84937742  0.36325910    -0.78440
O39         O  0.61965099  0.79740221  0.33253497    -0.78590
C40         C  0.60173915  0.77674299  0.32339916     1.01990
Cr41       Cr  0.57117707  0.77296767  0.38331008     1.93740
Cr42       Cr  0.58194011  0.83803670  0.40683461     1.93210
Cr43       Cr  0.63396017  0.80460203  0.37457589     1.39100
O44         O  0.59592016  0.80491872  0.38830843    -1.23680
O45         O  0.43100933  0.60775053  0.71416439    -0.85930
O46         O  0.44721649  0.55709100  0.74702322    -0.82970
C47         C  0.47200904  0.56786342  0.75766868     0.97530
O48         O  0.47129960  0.58664138  0.77983620    -0.83010
O49         O  0.44904633  0.63319126  0.81836023    -0.85650
C50         C  0.45178127  0.65833895  0.80433815     1.02060
O51         O  0.43640786  0.66368431  0.78053933    -0.78410
O52         O  0.40659887  0.64988541  0.72720148    -0.78600
C53         C  0.42714494  0.63637492  0.71185245     1.02010
O54         O  0.36666254  0.59585694  0.72668657    -0.85920
O55         O  0.38338277  0.55112018  0.76796462    -0.82990
C56         C  0.39582892  0.54022242  0.79182699     0.97550
O57         O  0.42254260  0.54873706  0.79827021    -0.83020
O58         O  0.39716693  0.59621484  0.83146678    -0.85620
C59         C  0.38163097  0.62044456  0.83436160     1.02030
O60         O  0.38482541  0.64274942  0.81601996    -0.78440
O61         O  0.35603613  0.62749484  0.76374444    -0.78590
C62         C  0.34733897  0.61008358  0.74265295     1.01990
Cr63       Cr  0.40734721  0.57976231  0.74106229     1.93740
Cr64       Cr  0.43365369  0.59225437  0.80474917     1.93210
Cr65       Cr  0.39719142  0.64302368  0.77167726     1.39100
O66         O  0.41292384  0.60545790  0.77237428    -1.23680
O67         O  0.72622394  0.67439779  0.49314106    -0.85930
O68         O  0.74827462  0.72057677  0.52961688    -0.82970
C69         C  0.75506985  0.73591526  0.55304165     0.97530
O70         O  0.75464366  0.72340448  0.57900151    -0.83010
O71         O  0.69099577  0.71314097  0.58543375    -0.85650
C72         C  0.66572018  0.69892200  0.58366926     1.02060
O73         O  0.66438549  0.67168300  0.57346564    -0.78410
O74         O  0.68117994  0.66780103  0.51389834    -0.78600
C75         C  0.69734646  0.67589262  0.49153987     1.02010
O76         O  0.76367429  0.63192468  0.52669681    -0.85920
O77         O  0.78871307  0.67638732  0.56083180    -0.82990
C78         C  0.78842020  0.66363109  0.58698490     0.97550
O79         O  0.76456394  0.66371399  0.60301211    -0.83020
O80         O  0.70445815  0.65912303  0.61724339    -0.85620
C81         C  0.69825103  0.63116615  0.61406075     1.02030
O82         O  0.70075486  0.61870386  0.58808225    -0.78440
O83         O  0.71708647  0.61345856  0.52662635    -0.78590
C84         C  0.74571519  0.60977606  0.52359334     1.01990
Cr85       Cr  0.75427878  0.67547916  0.52964402     1.93740
Cr86       Cr  0.72860427  0.68856024  0.59318427     1.93210
Cr87       Cr  0.69360114  0.64481001  0.55070574     1.39100
O88         O  0.72530754  0.66948316  0.55753720    -1.23680
O89         O  0.52183658  0.73607291  0.65465293    -0.85930
O90         O  0.56195297  0.78106512  0.67439068    -0.82970
C91         C  0.57832349  0.76935162  0.69555207     0.97530
O92         O  0.59582517  0.74718681  0.69004280    -0.83010
O93         O  0.62241399  0.69844225  0.66216686    -0.85650
C94         C  0.60480915  0.67562382  0.66455808     1.02060
O95         O  0.57867268  0.67550165  0.65208511    -0.78410
O96         O  0.52715305  0.69831965  0.62198076    -0.78600
C97         C  0.51360702  0.71026447  0.64453148     1.02010
O98         O  0.53345680  0.75295409  0.59045048    -0.85920
O99         O  0.57689279  0.79322843  0.61054309    -0.82990
C100        C  0.60224673  0.80183701  0.62141056     0.97550
O101        O  0.61529510  0.78683674  0.64246233    -0.83020
O102        O  0.63787675  0.73669771  0.61124515    -0.85620
C103        C  0.63809254  0.71083786  0.59841149     1.02030
O104        O  0.61583903  0.69257590  0.60162614    -0.78440
O105        O  0.56738663  0.71959700  0.57474676    -0.78590
C106        C  0.54900050  0.74097962  0.56902865     1.01990
Cr107      Cr  0.55032222  0.76367200  0.63254845     1.93740
Cr108      Cr  0.61499274  0.74183993  0.65010022     1.93210
Cr109      Cr  0.57237353  0.69923593  0.61398256     1.39100
O110        O  0.57917619  0.73489897  0.63234397    -1.23680
O111        O  0.68163218  0.53503565  0.70380867    -0.85930
O112        O  0.69909022  0.57710018  0.74885647    -0.82970
C113        C  0.71906626  0.59429502  0.73687434     0.97530
O114        O  0.71240328  0.60999263  0.71369336    -0.83010
O115        O  0.68244702  0.63340508  0.66449982    -0.85650
C116        C  0.68452750  0.61644518  0.64110765     1.02060
O117        O  0.67221920  0.59020837  0.64067642    -0.78410
O118        O  0.64686043  0.53776574  0.66737622    -0.78600
C119        C  0.67100460  0.52604920  0.67835763     1.02010
O120        O  0.61757801  0.54252312  0.72247920    -0.85920
O121        O  0.63529212  0.58851340  0.76082052    -0.82990
C122        C  0.64333585  0.61523492  0.76804003     0.97550
O123        O  0.66349289  0.62923413  0.75290947    -0.83020
O124        O  0.63217048  0.64872646  0.70215131    -0.85620
C125        C  0.61803831  0.64768919  0.67700680     1.02030
O126        O  0.62009503  0.62460612  0.65969460    -0.78440
O127        O  0.59766550  0.57531509  0.69021503    -0.78590
C128        C  0.59430471  0.55601728  0.71136138     1.01990
Cr129      Cr  0.65832536  0.56258234  0.73162846     1.93740
Cr130      Cr  0.67147386  0.62731397  0.70795033     1.93210
Cr131      Cr  0.63568179  0.58222776  0.66732844     1.39100
O132        O  0.65530777  0.59074645  0.70218983    -1.23680
O133        O  0.59237883  0.50667653  0.24647307    -0.85930
O134        O  0.61322117  0.46172485  0.28426923    -0.82970
C135        C  0.62022139  0.43420526  0.28974681     0.97530
O136        O  0.64163976  0.42161545  0.27488623    -0.83010
O137        O  0.61002594  0.40132523  0.22310883    -0.85650
C138        C  0.59766274  0.40263093  0.19688240     1.02060
O139        O  0.60041862  0.42649421  0.18081180    -0.78410
O140        O  0.57300030  0.47287422  0.21430679    -0.78600
C141        C  0.56956522  0.49252068  0.23532421     1.02010
O142        O  0.65497653  0.51829856  0.22679850    -0.85920
O143        O  0.67678647  0.47798620  0.26903613    -0.82990
C144        C  0.69672769  0.46560112  0.25213980     0.97550
O145        O  0.68933462  0.44396673  0.23464162    -0.83020
O146        O  0.66021906  0.42027667  0.18568357    -0.85620
C147        C  0.66513403  0.44098554  0.16609034     1.02030
O148        O  0.64984874  0.46567777  0.16654455    -0.78440
O149        O  0.61812077  0.51454667  0.19376117    -0.78590
C150        C  0.64314613  0.52630860  0.20162800     1.01990
Cr151      Cr  0.63419618  0.48917576  0.25481759     1.93740
Cr152      Cr  0.64901083  0.42446797  0.22978250     1.93210
Cr153      Cr  0.61160971  0.46943020  0.19120111     1.39100
O154        O  0.63150190  0.46082127  0.22546269    -1.23680
O155        O  0.50357239  0.28284009  0.57210680    -0.85930
O156        O  0.45737485  0.32035752  0.58732320    -0.82970
C157        C  0.42935565  0.32566974  0.59154252     0.97530
O158        O  0.41524693  0.31211977  0.61264293    -0.83010
O159        O  0.40069516  0.25794565  0.58188831    -0.85650
C160        C  0.40278110  0.23052076  0.57283657     1.02060
O161        O  0.42627197  0.21489508  0.57932029    -0.78410
O162        O  0.47421357  0.24610676  0.55435282    -0.78600
C163        C  0.49088272  0.26912183  0.54956741     1.02010
O164        O  0.51140180  0.26778934  0.63829892    -0.85920
O165        O  0.46880633  0.30896485  0.65400551    -0.82990
C166        C  0.45293814  0.29426097  0.67339778     0.97550
O167        O  0.43298477  0.27551783  0.66432003    -0.83020
O168        O  0.41399656  0.22450515  0.63608184    -0.85620
C169        C  0.43355367  0.20499307  0.64465907     1.02030
O170        O  0.46047495  0.20579804  0.63402147    -0.78440
O171        O  0.51205401  0.23026659  0.60559646    -0.78590
C172        C  0.52205033  0.24249069  0.62980342     1.01990
Cr173      Cr  0.48352599  0.29310134  0.61274700     1.93740
Cr174      Cr  0.41858928  0.26760994  0.62268835     1.93210
Cr175      Cr  0.46777073  0.22693000  0.59439998     1.39100
O176        O  0.45658595  0.26275450  0.60989521    -1.23680
O177        O  0.27275260  0.60572623  0.48000276    -0.85930
O178        O  0.30633184  0.62319443  0.43067217    -0.82970
C179        C  0.31034005  0.63035884  0.40300848     0.97530
O180        O  0.29507185  0.65196402  0.39115293    -0.83010
O181        O  0.24527383  0.61625674  0.37454360    -0.85650
C182        C  0.22098815  0.60115349  0.37808296     1.02060
O183        O  0.20478712  0.60433872  0.40187480    -0.78410
O184        O  0.23864270  0.58306383  0.45058269    -0.78600
C185        C  0.26036312  0.58149458  0.46964976     1.02010
O186        O  0.25206003  0.66939845  0.48677438    -0.85920
O187        O  0.29092278  0.68777059  0.44251418    -0.82990
C188        C  0.27333777  0.70684315  0.42933519     0.97550
O189        O  0.25220842  0.69774264  0.41191961    -0.83020
O190        O  0.20445214  0.66410226  0.39043232    -0.85620
C191        C  0.18538329  0.66922344  0.41145945     1.02030
O192        O  0.18850628  0.65715879  0.43746915    -0.78440
O193        O  0.21795105  0.63304110  0.48765084    -0.78590
C194        C  0.22726092  0.65889655  0.49685400     1.01990
Cr195      Cr  0.27861936  0.64611529  0.45829044     1.93740
Cr196      Cr  0.24946252  0.65643905  0.39474613     1.93210
Cr197      Cr  0.21471638  0.62068547  0.44366026     1.39100
O198        O  0.24771959  0.64075418  0.43209098    -1.23680
O199        O  0.28781119  0.43761058  0.47528432    -0.85930
O200        O  0.25670849  0.39517940  0.44286199    -0.82970
C201        C  0.25362943  0.40462820  0.41561526     0.97530
O202        O  0.27595899  0.40611756  0.39740434    -0.83010
O203        O  0.33489903  0.41177221  0.37698158    -0.85650
C204        C  0.34178876  0.43924108  0.38157486     1.02060
O205        O  0.34188065  0.45005635  0.40843897    -0.78410
O206        O  0.33510900  0.45280808  0.47174055    -0.78600
C207        C  0.30739886  0.45873101  0.47667507     1.02010
O208        O  0.32686688  0.38935049  0.50222241    -0.85920
O209        O  0.29485269  0.34703389  0.46665398    -0.82990
C210        C  0.28584903  0.33388104  0.44242684     0.97550
O211        O  0.28891766  0.34718879  0.41721739    -0.83020
O212        O  0.35177641  0.35625240  0.40552378    -0.85620
C213        C  0.37746141  0.36981527  0.40716339     1.02030
O214        O  0.37925846  0.39719827  0.41627682    -0.78440
O215        O  0.36942926  0.39717741  0.47662534    -0.78590
C216        C  0.35569647  0.38679510  0.49959301     1.01990
Cr217      Cr  0.29411416  0.39292943  0.46953962     1.93740
Cr218      Cr  0.31346586  0.38163353  0.40254585     1.93210
Cr219      Cr  0.35334066  0.42246855  0.44317294     1.39100
O220        O  0.32037171  0.39883616  0.43874965    -1.23680
O221        O  0.51347604  0.31461138  0.40671037    -0.85930
O222        O  0.46860657  0.27563028  0.38563656    -0.82970
C223        C  0.44267111  0.26899451  0.37455482     0.97530
O224        O  0.43279289  0.28295336  0.35112322    -0.83010
O225        O  0.40666044  0.33191811  0.38091866    -0.85650
C226        C  0.40604407  0.35684155  0.39535490     1.02060
O227        O  0.42958961  0.37372331  0.39689672    -0.78410
O228        O  0.47732701  0.34420653  0.42436206    -0.78600
C229        C  0.49724211  0.32384624  0.42877166     1.02010
O230        O  0.52554624  0.33331357  0.34434825    -0.85920
O231        O  0.48567576  0.28768115  0.32276667    -0.82990
C232        C  0.47091484  0.30038798  0.30114491     0.97550
O233        O  0.45597688  0.32444918  0.30614264    -0.83020
O234        O  0.42684886  0.37199441  0.33447893    -0.85620
C235        C  0.44267903  0.39619323  0.33625752     1.02030
O236        O  0.46814579  0.39618963  0.35019990    -0.78440
O237        O  0.51902564  0.36952868  0.37865562    -0.78590
C238        C  0.53363231  0.35865118  0.35599502     1.01990
Cr239      Cr  0.49653415  0.30493782  0.36472435     1.93740
Cr240      Cr  0.43334800  0.32814814  0.34449492     1.93210
Cr241      Cr  0.47357178  0.36820530  0.38617506     1.39100
O242        O  0.46777796  0.33401974  0.36499203    -1.23680
O243        O  0.42943552  0.51390661  0.26468208    -0.85930
O244        O  0.38758134  0.48035603  0.23507313    -0.82970
C245        C  0.39885315  0.45340418  0.23507535     0.97530
O246        O  0.39825467  0.43719040  0.25893721    -0.83010
O247        O  0.39931050  0.42139372  0.31915882    -0.85650
C248        C  0.42721541  0.42433312  0.32567209     1.02060
O249        O  0.43910765  0.45066305  0.32596292    -0.78410
O250        O  0.44433433  0.51239454  0.31286227    -0.78600
C251        C  0.45021593  0.51421833  0.28466080     1.02010
O252        O  0.38242220  0.54594906  0.30021309    -0.85920
O253        O  0.33937432  0.50948117  0.27273396    -0.82990
C254        C  0.32468577  0.48556116  0.26617151     0.97550
O255        O  0.33827005  0.46023860  0.26545410    -0.83020
O256        O  0.34451812  0.45311701  0.32947121    -0.85620
C257        C  0.35630831  0.45493433  0.35606775     1.02030
O258        O  0.38363570  0.46393881  0.35997546    -0.78440
O259        O  0.38748348  0.52309732  0.34488367    -0.78590
C260        C  0.37837371  0.54526864  0.32894173     1.01990
Cr261      Cr  0.38504580  0.51052718  0.27049689     1.93740
Cr262      Cr  0.37138643  0.44601540  0.29359946     1.93210
Cr263      Cr  0.41202230  0.48742875  0.33300313     1.39100
O264        O  0.38963175  0.48166514  0.29914192    -1.23680
O265        O  0.00386251  0.28099318  0.42815161    -0.85930
O266        O  0.95429415  0.24666679  0.41180145    -0.82970
C267        C  0.92576358  0.24373571  0.40758680     0.97530
O268        O  0.91280085  0.25885390  0.38652895    -0.83010
O269        O  0.89984274  0.31155848  0.41975582    -0.85650
C270        C  0.90411643  0.33758018  0.43167808     1.02060
O271        O  0.92821562  0.35225486  0.42536206    -0.78410
O272        O  0.97519703  0.31652427  0.44943601    -0.78600
C273        C  0.99421845  0.29463882  0.45196082     1.02010
O274        O  0.01052459  0.30009928  0.36366721    -0.85920
O275        O  0.96569592  0.26041503  0.34643904    -0.82990
C276        C  0.95075686  0.27653129  0.32734973     0.97550
O277        O  0.93239223  0.29677668  0.33658436    -0.83020
O278        O  0.91568233  0.34779852  0.36762758    -0.85620
C279        C  0.93718512  0.36531979  0.35936615     1.02030
O280        O  0.96345468  0.36260684  0.37149364    -0.78440
O281        O  0.01266818  0.33246513  0.40067330    -0.78590
C282        C  0.02097067  0.32472843  0.37445338     1.01990
Cr283      Cr  0.98187173  0.27391187  0.38780795     1.93740
Cr284      Cr  0.91799023  0.30347635  0.37867884     1.93210
Cr285      Cr  0.96902833  0.33885157  0.41052244     1.39100
O286        O  0.95608662  0.30509354  0.39258057    -1.23680
O287        O  0.09873677  0.05038819  0.74589510    -0.85930
O288        O  0.11103085  0.10288965  0.71423821    -0.82970
C289        C  0.11588511  0.13125487  0.71172066     0.97530
O290        O  0.13712956  0.14331770  0.72736165    -0.83010
O291        O  0.10255395  0.15380353  0.77947804    -0.85650
C292        C  0.09039833  0.14860868  0.80507602     1.02060
O293        O  0.09583442  0.12353550  0.81871010    -0.78410
O294        O  0.07632083  0.07666155  0.78230462    -0.78600
C295        C  0.07461786  0.06036793  0.75856464     1.02010
O296        O  0.16394016  0.04747112  0.76341387    -0.85920
O297        O  0.17729510  0.09467606  0.72646682    -0.82990
C298        C  0.19609756  0.10754004  0.74461022     0.97550
O299        O  0.18620229  0.12351092  0.76645417    -0.83020
O300        O  0.15413377  0.13912208  0.81675680    -0.85620
C301        C  0.16052226  0.11822819  0.83575367     1.02030
O302        O  0.15091929  0.09125337  0.83149280    -0.78440
O303        O  0.12955197  0.04116586  0.79893521    -0.78590
C304        C  0.15548982  0.03494727  0.78781279     1.01990
Cr305      Cr  0.13727325  0.07533582  0.73953042     1.93740
Cr306      Cr  0.14411718  0.13722435  0.77215719     1.93210
Cr307      Cr  0.11420594  0.08383231  0.80549600     1.39100
O308        O  0.13173408  0.09886384  0.77238744    -1.23680
O309        O  0.77231088  0.96391072  0.52277949    -0.85930
O310        O  0.80645030  0.94742783  0.57341598    -0.82970
C311        C  0.81032970  0.94076806  0.60138830     0.97530
O312        O  0.79592444  0.91856617  0.61297386    -0.83010
O313        O  0.74271863  0.95125734  0.62749430    -0.85650
C314        C  0.71699173  0.96389372  0.62303308     1.02060
O315        O  0.70257550  0.95942586  0.59816692    -0.78410
O316        O  0.73571714  0.98322788  0.55111623    -0.78600
C317        C  0.75783646  0.98703949  0.53308256     1.02010
O318        O  0.75599402  0.89820975  0.51510716    -0.85920
O319        O  0.79486028  0.88266175  0.56088133    -0.82990
C320        C  0.77682521  0.86267665  0.57149376     0.97550
O321        O  0.75643711  0.87010747  0.59025253    -0.83020
O322        O  0.70651597  0.90029044  0.61008347    -0.85620
C323        C  0.68720071  0.89488015  0.58914455     1.02030
O324        O  0.69079350  0.90596117  0.56274427    -0.78440
O325        O  0.72012038  0.93254614  0.51342727    -0.78590
C326        C  0.73039787  0.90692460  0.50495564     1.01990
Cr327      Cr  0.78049925  0.92338648  0.54458430     1.93740
Cr328      Cr  0.75078924  0.91115585  0.60748639     1.93210
Cr329      Cr  0.71468931  0.94409421  0.55710824     1.39100
O330        O  0.74884663  0.92664718  0.56994844    -1.23680
O331        O  0.79943438  0.13065390  0.51131045    -0.85930
O332        O  0.75724316  0.15308055  0.55246639    -0.82970
C333        C  0.74925579  0.16153299  0.57892667     0.97530
O334        O  0.76677754  0.17771782  0.59543800    -0.83010
O335        O  0.81805825  0.14654217  0.61685272    -0.85650
C336        C  0.84361072  0.13295697  0.61628201     1.02060
O337        O  0.86136893  0.13650513  0.59404636    -0.78410
O338        O  0.83160707  0.11191991  0.54536930    -0.78600
C339        C  0.81022572  0.10812453  0.52632067     1.02010
O340        O  0.82021062  0.19409032  0.50109907    -0.85920
O341        O  0.77498194  0.21505527  0.53970990    -0.82990
C342        C  0.78529519  0.23481708  0.55835563     0.97550
O343        O  0.80470148  0.22773777  0.57856316    -0.83020
O344        O  0.85501709  0.19908783  0.60223116    -0.85620
C345        C  0.87805390  0.20117375  0.58487901     1.02030
O346        O  0.87850971  0.18795509  0.55903033    -0.78440
O347        O  0.85505222  0.15876134  0.50685097    -0.78590
C348        C  0.84536087  0.18230873  0.49331784     1.01990
Cr349      Cr  0.79040062  0.17295415  0.52835919     1.93740
Cr350      Cr  0.81158776  0.18634070  0.59511723     1.93210
Cr351      Cr  0.85360455  0.15048177  0.55154662     1.39100
O352        O  0.81833269  0.17009461  0.55845922    -1.23680
O353        O  0.01288490  0.25997421  0.59940078    -0.85930
O354        O  0.96831288  0.29745894  0.62116048    -0.82970
C355        C  0.94119125  0.30352445  0.62847258     0.97530
O356        O  0.92681725  0.28737179  0.64747313    -0.83010
O357        O  0.90500005  0.23824990  0.61411490    -0.85650
C358        C  0.90612169  0.21415680  0.59815081     1.02060
O359        O  0.92996881  0.19788257  0.59774526    -0.78410
O360        O  0.97955207  0.23005535  0.57663721    -0.78600
C361        C  0.99946595  0.25087871  0.57518564     1.02010
O362        O  0.02052878  0.23584108  0.66177429    -0.85920
O363        O  0.98031354  0.28068540  0.68267157    -0.82990
C364        C  0.96277322  0.26828407  0.70190326     0.97550
O365        O  0.94646203  0.24594145  0.69415947    -0.83020
O366        O  0.92202846  0.19886201  0.66269091    -0.85620
C367        C  0.93932391  0.17582208  0.66234134     1.02030
O368        O  0.96447917  0.17585610  0.64803152    -0.78440
O369        O  0.01704164  0.20281477  0.62429867    -0.78590
C370        C  0.02950501  0.21147475  0.64908037     1.01990
Cr371      Cr  0.99354585  0.26602139  0.64098991     1.93740
Cr372      Cr  0.92820290  0.24239477  0.65319687     1.93210
Cr373      Cr  0.97243505  0.20449122  0.61336785     1.39100
O374        O  0.96448628  0.23763057  0.63579651    -1.23680
O375        O  0.93097518  0.04507832  0.72028077    -0.85930
O376        O  0.91391871  0.08967115  0.76019317    -0.82970
C377        C  0.90478203  0.11567452  0.76853049     0.97530
O378        O  0.88445700  0.12977497  0.75357314    -0.83010
O379        O  0.91478812  0.14873188  0.70152369    -0.85650
C380        C  0.92650480  0.14800032  0.67517049     1.02060
O381        O  0.92160815  0.12577578  0.65732710    -0.78410
O382        O  0.94684675  0.07664774  0.68480175    -0.78600
C383        C  0.95254626  0.05931015  0.70704113     1.02010
O384        O  0.86607613  0.03470826  0.70561817    -0.85920
O385        O  0.84906256  0.07737571  0.74997454    -0.82990
C386        C  0.82865316  0.09507339  0.73880377     0.97550
O387        O  0.83449921  0.11129297  0.71588345    -0.83020
O388        O  0.86120317  0.13622304  0.66625309    -0.85620
C389        C  0.85642759  0.11868125  0.64380660     1.02030
O390        O  0.86774202  0.09190766  0.64323782    -0.78440
O391        O  0.89676202  0.03875041  0.66620643    -0.78590
C392        C  0.87515992  0.02541384  0.67984981     1.01990
Cr393      Cr  0.88992133  0.06355545  0.73166973     1.93740
Cr394      Cr  0.87499612  0.12848642  0.70891298     1.93210
Cr395      Cr  0.90686137  0.08343692  0.66577785     1.39100
O396        O  0.89045452  0.09172480  0.70208167    -1.23680
O397        O  0.61792753  0.10763643  0.78847512    -0.85930
O398        O  0.59829352  0.05778229  0.75524076    -0.82970
C399        C  0.57381775  0.06786009  0.74300252     0.97530
O400        O  0.57501736  0.08678632  0.72117455    -0.83010
O401        O  0.59733195  0.13369234  0.68462661    -0.85650
C402        C  0.59530107  0.15849992  0.69939739     1.02060
O403        O  0.60979886  0.16209625  0.72425831    -0.78410
O404        O  0.64573541  0.14695634  0.77488976    -0.78600
C405        C  0.62529314  0.13545159  0.79166490     1.02010
O406        O  0.68110795  0.09393010  0.77281095    -0.85920
O407        O  0.66135477  0.04947252  0.73329312    -0.82990
C408        C  0.64935454  0.03868745  0.70925772     0.97550
O409        O  0.62340164  0.04833504  0.70109629    -0.83020
O410        O  0.64820269  0.09683154  0.66852505    -0.85620
C411        C  0.66041190  0.12275480  0.66457328     1.02030
O412        O  0.65806577  0.14327676  0.68493796    -0.78440
O413        O  0.69178624  0.12416665  0.73436012    -0.78590
C414        C  0.70056319  0.10734224  0.75620050     1.01990
Cr415      Cr  0.63923169  0.07887367  0.76030096     1.93740
Cr416      Cr  0.61248169  0.09221649  0.69639010     1.93210
Cr417      Cr  0.65013036  0.14130267  0.72978451     1.39100
O418        O  0.63375223  0.10434763  0.72894472    -1.23680
O419        O  0.30762632  0.94431557  0.93076726    -0.85930
O420        O  0.27363649  0.96336384  0.97965442    -0.82970
C421        C  0.26221709  0.98784463  0.96862768     0.97530
O422        O  0.24178491  0.98637281  0.94801125    -0.83010
O423        O  0.20536005  0.96281212  0.89988572    -0.85650
C424        C  0.22033696  0.96275740  0.87508963     1.02060
O425        O  0.24509694  0.94815956  0.87288447    -0.78410
O426        O  0.29610401  0.91589753  0.89090255    -0.78600
C427        C  0.31066226  0.93818661  0.90258336     1.02010
O428        O  0.29264998  0.88003211  0.94435918    -0.85920
O429        O  0.25120757  0.89974814  0.98674310    -0.82990
C430        C  0.22634357  0.91174872  0.99532087     0.97550
O431        O  0.22086342  0.93878215  0.98697073    -0.83020
O432        O  0.18882996  0.91376497  0.93905764    -0.85620
C433        C  0.18668487  0.89815900  0.91498511     1.02030
O434        O  0.20624689  0.90017185  0.89389108    -0.78440
O435        O  0.25433668  0.86867357  0.91431763    -0.78590
C436        C  0.27471630  0.86033144  0.93281351     1.01990
Cr437      Cr  0.27944749  0.92220318  0.95873505     1.93740
Cr438      Cr  0.21648889  0.94921774  0.94267818     1.93210
Cr439      Cr  0.25072835  0.90950062  0.89560614     1.39100
O440        O  0.24900407  0.92735680  0.93194014    -1.23680
O441        O  0.44654876  0.24819914  0.09234017    -0.85930
O442        O  0.49786559  0.27995017  0.07498048    -0.82970
C443        C  0.48722747  0.29381937  0.05165269     0.97530
O444        O  0.47056845  0.31725253  0.05477011    -0.83010
O445        O  0.42567871  0.35472025  0.07897104    -0.85650
C446        C  0.40089934  0.34035801  0.07430632     1.02060
O447        O  0.39623175  0.31494955  0.08707125    -0.78410
O448        O  0.40714081  0.26217693  0.11981186    -0.78600
C449        C  0.41849359  0.24581464  0.09881375     1.02010
O450        O  0.46038637  0.25998875  0.15645581    -0.85920
O451        O  0.50728588  0.29673775  0.13984018    -0.82990
C452        C  0.52015657  0.32041895  0.12976356     0.97550
O453        O  0.51067738  0.33226240  0.10505761    -0.83020
O454        O  0.46348840  0.36433480  0.13195942    -0.85620
C455        C  0.43770979  0.36909576  0.14399231     1.02030
O456        O  0.41540432  0.35133308  0.13854063    -0.78440
O457        O  0.43147268  0.29919793  0.16887684    -0.78590
C458        C  0.44797556  0.27676922  0.17652631     1.01990
Cr459      Cr  0.47644631  0.27346480  0.11559604     1.93740
Cr460      Cr  0.46674673  0.33969261  0.09387961     1.93210
Cr461      Cr  0.41532411  0.30666124  0.12749100     1.39100
O462        O  0.45271374  0.30646007  0.11220204    -1.23680
O463        O  0.52794347  0.23532026  0.84440372    -0.85930
O464        O  0.48613696  0.27813492  0.82128823    -0.81290
C465        C  0.47019259  0.26481444  0.80073666     0.97530
O466        O  0.45584533  0.24088689  0.80745172    -0.83010
O467        O  0.42991519  0.19383841  0.83840714    -0.85650
C468        C  0.44667334  0.17020434  0.83813038     1.02060
O469        O  0.47266349  0.17049785  0.85089079    -0.78410
O470        O  0.52347127  0.19850031  0.87806097    -0.78600
C471        C  0.53732841  0.21033373  0.85554475     1.02010
O472        O  0.51538632  0.25593254  0.90687610    -0.85920
O473        O  0.47057220  0.29287899  0.88414816    -0.82990
C474        C  0.44537868  0.30028900  0.87212657     0.97550
O475        O  0.43309667  0.28327599  0.85214012    -0.83020
O476        O  0.41158445  0.23418639  0.88549630    -0.85620
C477        C  0.41165582  0.20953732  0.90056597     1.02030
O478        O  0.43476106  0.19190330  0.90019245    -0.78440
O479        O  0.48281185  0.22236148  0.92432217    -0.78590
C480        C  0.50004752  0.24494680  0.92886193     1.01990
Cr481      Cr  0.49830838  0.26308181  0.86421876     1.93740
Cr482      Cr  0.43542114  0.23777537  0.84719472     1.93210
Cr483      Cr  0.47834241  0.19864463  0.88678985     1.39100
O484        O  0.47074730  0.23303690  0.86602869    -1.23680
O485        O  0.37996117  0.02378121  0.79799826    -0.85930
O486        O  0.33820125  0.06428356  0.77122592    -0.82970
C487        C  0.32585353  0.08982412  0.76511475     0.97530
O488        O  0.34234226  0.11313400  0.76471338    -0.83010
O489        O  0.34779719  0.11833841  0.82937221    -0.85650
C490        C  0.36016495  0.11634443  0.85565416     1.02060
O491        O  0.38692122  0.10524947  0.85884773    -0.78410
O492        O  0.38803437  0.04555730  0.84290082    -0.78600
C493        C  0.37778911  0.02378394  0.82695715     1.02010
O494        O  0.42890452  0.05270112  0.76276931    -0.85920
O495        O  0.38843518  0.09029050  0.73431485    -0.82990
C496        C  0.40041570  0.11686932  0.73497440     0.97550
O497        O  0.40295013  0.13168688  0.75960604    -0.83020
O498        O  0.40377849  0.14649988  0.81982550    -0.85620
C499        C  0.43148446  0.14258415  0.82613505     1.02030
O500        O  0.44276972  0.11594413  0.82491149    -0.78440
O501        O  0.44430589  0.05348807  0.81062605    -0.78590
C502        C  0.44992783  0.04990084  0.78247233     1.01990
Cr503      Cr  0.38442570  0.05958455  0.76897887     1.93740
Cr504      Cr  0.37529669  0.12423696  0.79365284     1.93210
Cr505      Cr  0.41385256  0.08027101  0.83142396     1.39100
O506        O  0.39127465  0.08753055  0.79816231    -1.23680
O507        O  0.32059178  0.19513356  0.99569024    -0.85930
O508        O  0.27536888  0.21234089  0.95384866    -0.82970
C509        C  0.28697277  0.23271737  0.93684527     0.97530
O510        O  0.30958762  0.22641185  0.92027289    -0.83010
O511        O  0.35965406  0.19716500  0.89632785    -0.85650
C512        C  0.38296335  0.19813260  0.91370187     1.02060
O513        O  0.38272800  0.18575401  0.93987437    -0.78410
O514        O  0.35742546  0.16128186  0.99289422    -0.78600
C515        C  0.34553257  0.18440975  0.00587097     1.02010
O516        O  0.30273949  0.13152631  0.98863322    -0.85920
O517        O  0.26384805  0.14806036  0.94247301    -0.82990
C518        C  0.25572745  0.15670999  0.91615539     0.97550
O519        O  0.27083879  0.17671786  0.90175547    -0.83020
O520        O  0.32178785  0.14585895  0.88078575    -0.85620
C521        C  0.34697541  0.13181437  0.88241602     1.02030
O522        O  0.36373034  0.13405481  0.90600639    -0.78440
O523        O  0.33421389  0.11099154  0.95580553    -0.78590
C524        C  0.31390164  0.10799616  0.97588144     1.01990
Cr525      Cr  0.29299217  0.17170762  0.96805042     1.93740
Cr526      Cr  0.31587305  0.18531862  0.90287793     1.93210
Cr527      Cr  0.35664688  0.14947900  0.94829644     1.39100
O528        O  0.32199569  0.16904559  0.93964580    -1.23680
O529        O  0.09423594  0.82850755  0.60429294    -0.85930
O530        O  0.05379117  0.79639730  0.57007502    -0.82970
C531        C  0.04916844  0.77514248  0.55128890     0.97530
O532        O  0.05493981  0.74767321  0.55864182    -0.83010
O533        O  0.11660946  0.73783744  0.55940052    -0.85650
C534        C  0.14380480  0.73374843  0.56772941     1.02060
O535        O  0.15192226  0.74238201  0.59423017    -0.78410
O536        O  0.13774708  0.80398391  0.59537028    -0.78600
C537        C  0.12109169  0.82737471  0.59264398     1.02010
O538        O  0.06988462  0.79424436  0.65820995    -0.85920
O539        O  0.02976489  0.76396569  0.62453205    -0.82990
C540        C  0.03183619  0.73542023  0.63036437     0.97550
O541        O  0.05236413  0.71956315  0.61818370    -0.83020
O542        O  0.11185216  0.70427430  0.61738181    -0.85620
C543        C  0.12068259  0.71011167  0.64463492     1.02030
O544        O  0.12489384  0.73738894  0.65285671    -0.78440
O545        O  0.11904560  0.79960810  0.65798662    -0.78590
C546        C  0.09428520  0.79845047  0.67270187     1.01990
Cr547      Cr  0.06412807  0.79379285  0.61382847     1.93740
Cr548      Cr  0.08445946  0.73022588  0.58966909     1.93210
Cr549      Cr  0.13038006  0.77064784  0.62381279     1.39100
O550        O  0.09266049  0.76506054  0.60887554    -1.23680
O551        O  0.93028596  0.96286924  0.28913102    -0.85930
O552        O  0.94608829  0.01268919  0.25465552    -0.82970
C553        C  0.97052882  0.00263156  0.24265619     0.97530
O554        O  0.96920190  0.98181207  0.22251792    -0.83010
O555        O  0.94777586  0.93421512  0.18590791    -0.85650
C556        C  0.95114162  0.90990662  0.20127259     1.02060
O557        O  0.93688871  0.90609887  0.22596663    -0.78410
O558        O  0.90427409  0.92169442  0.27737456    -0.78600
C559        C  0.92563816  0.93443603  0.29249171     1.02010
O560        O  0.86540429  0.97383092  0.27505711    -0.85920
O561        O  0.88186787  0.01735684  0.23315325    -0.82990
C562        C  0.89323944  0.02700106  0.20846423     0.97550
O563        O  0.92031419  0.01949801  0.20272822    -0.83020
O564        O  0.89527478  0.97046875  0.17186748    -0.85620
C565        C  0.88180939  0.94521695  0.16867803     1.02030
O566        O  0.88609618  0.92350439  0.18745981    -0.78440
O567        O  0.85478758  0.94207563  0.23779284    -0.78590
C568        C  0.84593120  0.95997490  0.25858477     1.01990
Cr569      Cr  0.90625229  0.98998328  0.26111933     1.93740
Cr570      Cr  0.93191818  0.97563644  0.19791623     1.93210
Cr571      Cr  0.89659066  0.92606400  0.23232289     1.39100
O572        O  0.91181907  0.96352789  0.23061958    -1.23680
O573        O  0.23676464  0.12433838  0.43357649    -0.85930
O574        O  0.27252398  0.11119962  0.48364431    -0.82970
C575        C  0.28539601  0.08761600  0.47273224     0.97530
O576        O  0.30734228  0.09066770  0.45411569    -0.83010
O577        O  0.34372976  0.11538583  0.40796422    -0.85650
C578        C  0.32968848  0.11017288  0.38320520     1.02060
O579        O  0.30362317  0.12167201  0.37848381    -0.78410
O580        O  0.24832703  0.14908403  0.39122972    -0.78600
C581        C  0.23313393  0.12895827  0.40520031     1.02010
O582        O  0.24487231  0.18910383  0.44469554    -0.85920
O583        O  0.28745661  0.17673325  0.48901497    -0.82990
C584        C  0.31231436  0.16730762  0.50050785     0.97550
O585        O  0.32275262  0.14169186  0.49224208    -0.83020
O586        O  0.35242354  0.16887373  0.44343621    -0.85620
C587        C  0.35353610  0.18314395  0.41826245     1.02030
O588        O  0.33471444  0.17742948  0.39674738    -0.78440
O589        O  0.27990393  0.20214579  0.41161042    -0.78590
C590        C  0.25846157  0.20925845  0.42931952     1.01990
Cr591      Cr  0.26270312  0.15011968  0.46094913     1.93740
Cr592      Cr  0.32890511  0.13024038  0.44854900     1.93210
Cr593      Cr  0.29171034  0.16139524  0.39743974     1.39100
O594        O  0.29432774  0.14730438  0.43534969    -1.23680
O595        O  0.21948511  0.89452553  0.50674563    -0.85930
O596        O  0.24613556  0.84984465  0.47003360    -0.82970
C597        C  0.25415263  0.83615150  0.44585992     0.97530
O598        O  0.25542383  0.85106903  0.42143696    -0.83010
O599        O  0.19286196  0.86081944  0.41077536    -0.85650
C600        C  0.16701991  0.87391403  0.41289993     1.02060
O601        O  0.16473181  0.90129694  0.42257012    -0.78410
O602        O  0.17691325  0.90668548  0.48282554    -0.78600
C603        C  0.19051686  0.89619238  0.50596861     1.02010
O604        O  0.25979144  0.93978037  0.47974310    -0.85920
O605        O  0.28838328  0.89571291  0.44552735    -0.82990
C606        C  0.29128994  0.90505219  0.41807692     0.97550
O607        O  0.26814521  0.90980369  0.40121962    -0.83020
O608        O  0.20840004  0.91518398  0.38065605    -0.85620
C609        C  0.20154050  0.94275397  0.38450616     1.02030
O610        O  0.20249684  0.95431034  0.41087386    -0.78440
O611        O  0.21431933  0.96003629  0.47232377    -0.78590
C612        C  0.24233715  0.96284946  0.47930743     1.01990
Cr613      Cr  0.25107521  0.89571358  0.47324277     1.93740
Cr614      Cr  0.23070757  0.88577120  0.40677082     1.93210
Cr615      Cr  0.19256627  0.92848224  0.44706482     1.39100
O616        O  0.22463432  0.90348408  0.44276514    -1.23680
O617        O  0.02336877  0.83151949  0.34137592    -0.85930
O618        O  0.06500576  0.78947688  0.31814247    -0.82970
C619        C  0.08155933  0.80229848  0.29832943     0.97530
O620        O  0.09927488  0.82377321  0.30563400    -0.83010
O621        O  0.11969222  0.87330322  0.33755397    -0.85650
C622        C  0.10254754  0.89658713  0.33934048     1.02060
O623        O  0.07709424  0.89532623  0.35309232    -0.78410
O624        O  0.02701184  0.86448635  0.37891914    -0.78600
C625        C  0.01399752  0.85550304  0.35458646     1.02010
O626        O  0.03542095  0.80718613  0.40303593    -0.85920
O627        O  0.08100190  0.77183577  0.37903959    -0.82990
C628        C  0.10841670  0.76688672  0.37157942     0.97550
O629        O  0.12226021  0.78437719  0.35332756    -0.83020
O630        O  0.14071579  0.83510138  0.38524502    -0.85620
C631        C  0.13927318  0.85966118  0.40018766     1.02030
O632        O  0.11462015  0.87463716  0.40120025    -0.78440
O633        O  0.06769030  0.83908102  0.42472766    -0.78590
C634        C  0.04884750  0.81725081  0.42683307     1.01990
Cr635      Cr  0.05320121  0.80259539  0.36064018     1.93740
Cr636      Cr  0.11717064  0.82927631  0.34681137     1.93210
Cr637      Cr  0.07200288  0.86533401  0.38768846     1.39100
O638        O  0.08091704  0.83244629  0.36482640    -1.23680
O639        O  0.16590549  0.04511593  0.29989207    -0.85930
O640        O  0.20709075  0.00641590  0.27375493    -0.82970
C641        C  0.22045493  0.98147387  0.26847299     0.97530
O642        O  0.20491105  0.95751998  0.26817599    -0.83010
O643        O  0.19898470  0.95551141  0.33238748    -0.85650
C644        C  0.18698775  0.95820610  0.35863863     1.02060
O645        O  0.15948388  0.96743831  0.36177233    -0.78410
O646        O  0.15200122  0.02618774  0.34459517    -0.78600
C647        C  0.16475248  0.04649790  0.32885291     1.02010
O648        O  0.11700247  0.01723662  0.26416873    -0.85920
O649        O  0.15756750  0.97792544  0.23652143    -0.82990
C650        C  0.14835734  0.95013135  0.23733734     0.97550
O651        O  0.14553600  0.93617243  0.26246262    -0.83020
O652        O  0.14510772  0.92302170  0.32383326    -0.85620
C653        C  0.11695111  0.92510687  0.32860198     1.02030
O654        O  0.10418800  0.95090293  0.32654815    -0.78440
O655        O  0.09753693  0.01142697  0.31011555    -0.78590
C656        C  0.09438099  0.01754268  0.28198364     1.01990
Cr657      Cr  0.16109250  0.00971968  0.27094551     1.93740
Cr658      Cr  0.17218389  0.94623722  0.29699349     1.93210
Cr659      Cr  0.13019752  0.98876962  0.33283074     1.39100
O660        O  0.15417302  0.98215489  0.30030884    -1.23680
O661        O  0.03969215  0.78643193  0.07277998    -0.85930
O662        O  0.09092617  0.75232385  0.08496082    -0.82970
C663        C  0.11909061  0.74792494  0.09015082     0.97530
O664        O  0.13187825  0.76193099  0.11200079    -0.83010
O665        O  0.14355574  0.81480561  0.07814486    -0.85650
C666        C  0.13895331  0.84090558  0.06645174     1.02060
O667        O  0.11544414  0.85622381  0.07396063    -0.78410
O668        O  0.06582335  0.82433583  0.05318223    -0.78600
C669        C  0.04908485  0.80103445  0.04954287     1.02010
O670        O  0.03597648  0.80138951  0.13863310    -0.85920
O671        O  0.08257702  0.76295939  0.15122429    -0.82990
C672        C  0.09615539  0.77969036  0.17081235     0.97550
O673        O  0.11441151  0.80027672  0.16242484    -0.83020
O674        O  0.13208215  0.85068742  0.13098768    -0.85620
C675        C  0.11190621  0.86908234  0.14043454     1.02030
O676        O  0.08472124  0.86726616  0.13063411    -0.78440
O677        O  0.03246784  0.84017559  0.10726592    -0.78590
C678        C  0.02479842  0.82708276  0.13177621     1.01990
Cr679      Cr  0.06391094  0.77776782  0.11155718     1.93740
Cr680      Cr  0.12764054  0.80677208  0.11996448     1.93210
Cr681      Cr  0.07535331  0.84450476  0.09229741     1.39100
O682        O  0.08891913  0.80961129  0.10779924    -1.23680
O683        O  0.27717566  0.46362511  0.97802043    -0.85930
O684        O  0.24227589  0.44762792  0.92877956    -0.82970
C685        C  0.23798630  0.44106180  0.90096359     0.97530
O686        O  0.25215330  0.41889590  0.88900736    -0.83010
O687        O  0.30531423  0.45051347  0.87490055    -0.85650
C688        C  0.33120149  0.46276648  0.87877034     1.02060
O689        O  0.34656449  0.45674463  0.90272026    -0.78410
O690        O  0.31420415  0.48166177  0.94968706    -0.78600
C691        C  0.29141694  0.48622096  0.96660434     1.02010
O692        O  0.29237534  0.39886492  0.98713331    -0.85920
O693        O  0.25303240  0.38165915  0.94234179    -0.82990
C694        C  0.26838577  0.36125447  0.92835738     0.97550
O695        O  0.28947970  0.36882525  0.91031960    -0.83020
O696        O  0.34096324  0.39810666  0.89145646    -0.85620
C697        C  0.36096356  0.39237277  0.91182011     1.02030
O698        O  0.35813031  0.40346801  0.93839283    -0.78440
O699        O  0.33032051  0.43130389  0.98842200    -0.78590
C700        C  0.31735989  0.40763336  0.99855227     1.01990
Cr701      Cr  0.26821926  0.42307701  0.95731248     1.93740
Cr702      Cr  0.29692125  0.41017704  0.89430087     1.93210
Cr703      Cr  0.33464551  0.44204156  0.94414497     1.39100
O704        O  0.29985883  0.42505476  0.93194568    -1.23680
O705        O  0.94500526  0.56009267  0.75722851    -0.85930
O706        O  0.92899942  0.61221440  0.78921402    -0.82970
C707        C  0.92201597  0.64015225  0.79266013     0.97530
O708        O  0.90095353  0.65184457  0.77630287    -0.83010
O709        O  0.93434358  0.66631566  0.72500974    -0.85650
C710        C  0.94968839  0.66120674  0.70123790     1.02060
O711        O  0.94751272  0.63593855  0.68702498    -0.78410
O712        O  0.96858852  0.58801948  0.72309908    -0.78600
C713        C  0.96969936  0.56914318  0.74499566     1.02010
O714        O  0.88088896  0.55456985  0.73664243    -0.85920
O715        O  0.86460355  0.60085847  0.77590621    -0.82990
C716        C  0.84494593  0.61388220  0.75895413     0.97550
O717        O  0.85335942  0.62900770  0.73601608    -0.83020
O718        O  0.88581177  0.64740546  0.68606443    -0.85620
C719        C  0.88270062  0.62594893  0.66681844     1.02030
O720        O  0.89490913  0.60016998  0.67124253    -0.78440
O721        O  0.91758402  0.55115683  0.70310378    -0.78590
C722        C  0.89155307  0.54274075  0.71250977     1.01990
Cr723      Cr  0.90529686  0.58357371  0.76260340     1.93740
Cr724      Cr  0.89472365  0.64570632  0.73108989     1.93210
Cr725      Cr  0.93083551  0.59480812  0.69851578     1.39100
O726        O  0.91064330  0.60829543  0.73080033    -1.23680
O727        O  0.24509489  0.62846230  0.99380483    -0.85930
O728        O  0.28449054  0.64630616  0.94861626    -0.82970
C729        C  0.29075103  0.65377304  0.92144879     0.97530
O730        O  0.27554795  0.67436181  0.90792759    -0.83010
O731        O  0.22467653  0.64195508  0.88719625    -0.85650
C732        C  0.19960189  0.62744012  0.88839002     1.02060
O733        O  0.18265502  0.62955536  0.91144857    -0.78410
O734        O  0.21411794  0.60773290  0.96020687    -0.78600
C735        C  0.23580815  0.60526108  0.97907861     1.02010
O736        O  0.22547593  0.69189161  0.00133120    -0.85920
O737        O  0.27025414  0.71047727  0.96055032    -0.82990
C738        C  0.25676144  0.73087172  0.94482791     0.97550
O739        O  0.23601354  0.72357894  0.92605243    -0.83020
O740        O  0.18764611  0.69329321  0.90154695    -0.85620
C741        C  0.16443827  0.69470771  0.91842118     1.02030
O742        O  0.16377208  0.68159075  0.94432523    -0.78440
O743        O  0.18986120  0.65666374  0.99762658    -0.78590
C744        C  0.20003405  0.68096408  0.00959747     1.01990
Cr745      Cr  0.25413902  0.66911375  0.97406908     1.93740
Cr746      Cr  0.23073345  0.68199817  0.90868353     1.93210
Cr747      Cr  0.19045677  0.64546434  0.95330076     1.39100
O748        O  0.22493996  0.66578489  0.94527569    -1.23680
O749        O  0.03572896  0.75933897  0.90438212    -0.85930
O750        O  0.08164145  0.79630381  0.88289676    -0.82970
C751        C  0.10930499  0.80106936  0.87605780     0.97530
O752        O  0.12285262  0.78414383  0.85718605    -0.83010
O753        O  0.13929314  0.73232992  0.88926440    -0.85650
C754        C  0.13714748  0.70782060  0.90424375     1.02060
O755        O  0.11363459  0.69150806  0.90211769    -0.78410
O756        O  0.06660490  0.72523793  0.92473098    -0.78600
C757        C  0.04889633  0.74782962  0.92768011     1.02010
O758        O  0.02401804  0.73833824  0.84160678    -0.85920
O759        O  0.06745409  0.78033508  0.82060186    -0.82990
C760        C  0.08541415  0.76903972  0.80085175     0.97550
O761        O  0.10307359  0.74729415  0.80773835    -0.83020
O762        O  0.12311224  0.69652478  0.83768099    -0.85620
C763        C  0.10533307  0.67392806  0.83659436     1.02030
O764        O  0.07955076  0.67430922  0.85003270    -0.78440
O765        O  0.02752157  0.70259770  0.87638662    -0.78590
C766        C  0.01366828  0.71418343  0.85370915     1.01990
Cr767      Cr  0.05423385  0.76595137  0.86246619     1.93740
Cr768      Cr  0.11869896  0.73973408  0.84943241     1.93210
Cr769      Cr  0.07219026  0.70152641  0.88641455     1.39100
O770        O  0.08169078  0.73563972  0.86570314    -1.23680
O771        O  0.11713000  0.54321397  0.77527819    -0.85930
O772        O  0.13768460  0.59039057  0.73903606    -0.82970
C773        C  0.14798065  0.61677491  0.73350592     0.97530
O774        O  0.16900627  0.62785528  0.74982095    -0.83010
O775        O  0.13434278  0.64759235  0.79948879    -0.85650
C776        C  0.11874920  0.64599915  0.82381526     1.02060
O777        O  0.12020377  0.62268623  0.84077382    -0.78410
O778        O  0.09762871  0.57358232  0.80997427    -0.78600
C779        C  0.09397507  0.55559946  0.78764431     1.02010
O780        O  0.18082420  0.53304711  0.79611890    -0.85920
O781        O  0.20058630  0.57542719  0.75355460    -0.82990
C782        C  0.22125337  0.59085412  0.76698031     0.97550
O783        O  0.21484127  0.60686333  0.79011124    -0.83020
O784        O  0.18433908  0.63209563  0.83804985    -0.85620
C785        C  0.18612295  0.61433176  0.86054561     1.02030
O786        O  0.17256310  0.58863395  0.86029002    -0.78440
O787        O  0.14726244  0.53609695  0.83316034    -0.78590
C788        C  0.17114987  0.52433912  0.82194082     1.01990
Cr789      Cr  0.15883233  0.56222501  0.76847050     1.93740
Cr790      Cr  0.17405413  0.62557390  0.79467059     1.93210
Cr791      Cr  0.13606265  0.58057936  0.83315132     1.39100
O792        O  0.15630605  0.58945337  0.79890104    -1.23680
O793        O  0.81128270  0.63755486  0.07532385    -0.85930
O794        O  0.78106500  0.60046578  0.03626439    -0.82970
C795        C  0.75987227  0.58196701  0.03022765     0.97530
O796        O  0.73229371  0.58978174  0.03393289    -0.83010
O797        O  0.72118507  0.59273569  0.09591121    -0.85650
C798        C  0.71672556  0.60251507  0.12263285     1.02060
O799        O  0.72381509  0.62981127  0.12929440    -0.78410
O800        O  0.78497984  0.63221452  0.11811001    -0.78600
C801        C  0.80822492  0.62643760  0.10224280     1.02010
O802        O  0.77759135  0.68985053  0.04536749    -0.85920
O803        O  0.74875706  0.65250913  0.00712111    -0.82990
C804        C  0.72026561  0.65891177  0.00796701     0.97550
O805        O  0.70349186  0.64841183  0.02867052    -0.83020
O806        O  0.68616481  0.64833791  0.08718625    -0.85620
C807        C  0.69038830  0.67578457  0.09571256     1.02030
O808        O  0.71698682  0.68669270  0.09775922    -0.78440
O809        O  0.77922906  0.69388040  0.09468971    -0.78590
C810        C  0.77898100  0.70646695  0.06866337     1.01990
Cr811      Cr  0.77768168  0.64487142  0.04316810     1.93740
Cr812      Cr  0.71369236  0.62114241  0.06194126     1.93210
Cr813      Cr  0.75133288  0.65935773  0.10707023     1.39100
O814        O  0.74779249  0.64159571  0.07047251    -1.23680
O815        O  0.95689591  0.31630181  0.91453633    -0.85930
O816        O  0.00696045  0.28211960  0.93012315    -0.82970
C817        C  0.99703173  0.26935339  0.95424064     0.97530
O818        O  0.97696882  0.24859670  0.95247369    -0.83010
O819        O  0.92978833  0.21292558  0.92921027    -0.85650
C820        C  0.90588681  0.22850844  0.93407939     1.02060
O821        O  0.90140221  0.25326796  0.91990584    -0.78410
O822        O  0.91627972  0.30502834  0.88693588    -0.78600
C823        C  0.92870182  0.31980390  0.90863797     1.02010
O824        O  0.96738946  0.30390558  0.84982020    -0.85920
O825        O  0.01249161  0.26252359  0.86560611    -0.82990
C826        C  0.02303710  0.23808727  0.87709284     0.97550
O827        O  0.01465850  0.23102680  0.90357816    -0.83020
O828        O  0.96634035  0.20015239  0.87677959    -0.85620
C829        C  0.94066498  0.19693838  0.86380294     1.02030
O830        O  0.91882826  0.21522637  0.86931530    -0.78440
O831        O  0.93733204  0.26558353  0.83828459    -0.78590
C832        C  0.95414354  0.28739357  0.82999126     1.01990
Cr833      Cr  0.98437732  0.28933214  0.89026093     1.93740
Cr834      Cr  0.97106577  0.22526333  0.91430382     1.93210
Cr835      Cr  0.92108655  0.25995621  0.87966844     1.39100
O836        O  0.95852851  0.25839336  0.89507138    -1.23680
O837        O  0.11415154  0.46039587  0.21538446    -0.85930
O838        O  0.09844153  0.51105856  0.24796424    -0.82970
C839        C  0.07418384  0.50046964  0.25973915     0.97530
O840        O  0.07548060  0.48427618  0.28351684    -0.83010
O841        O  0.09297362  0.43515227  0.31612445    -0.85650
C842        C  0.08752879  0.41130760  0.30052898     1.02060
O843        O  0.10137392  0.40681667  0.27552617    -0.78410
O844        O  0.14101766  0.42025224  0.22696711    -0.78600
C845        C  0.11998111  0.43236801  0.21132278     1.02010
O846        O  0.17909455  0.46895121  0.23320041    -0.85920
O847        O  0.16227606  0.51576111  0.26937633    -0.82990
C848        C  0.15340900  0.52622525  0.29467268     0.97550
O849        O  0.12818827  0.51781638  0.30589349    -0.83020
O850        O  0.14746463  0.46452973  0.33503420    -0.85620
C851        C  0.15590438  0.43692558  0.33780413     1.02030
O852        O  0.14941730  0.41794494  0.31710324    -0.78440
O853        O  0.18637338  0.43761766  0.27155807    -0.78590
C854        C  0.19676681  0.45716224  0.25319387     1.01990
Cr855      Cr  0.13801568  0.48742201  0.24334426     1.93740
Cr856      Cr  0.11231628  0.47499828  0.30771350     1.93210
Cr857      Cr  0.14371501  0.42345474  0.27243715     1.39100
O858        O  0.13128568  0.46208494  0.27453885    -1.23680
O859        O  0.86900130  0.53406132  0.20046753    -0.85930
O860        O  0.84648231  0.49411593  0.24452233    -0.82970
C861        C  0.82378297  0.48240399  0.23050440     0.97530
O862        O  0.82792399  0.46563271  0.20741289    -0.83010
O863        O  0.85408375  0.43605212  0.15888322    -0.85650
C864        C  0.85465496  0.45352875  0.13587360     1.02060
O865        O  0.86947180  0.47842111  0.13669941    -0.78410
O866        O  0.90170066  0.52737818  0.16302945    -0.78600
C867        C  0.87937290  0.54168183  0.17451347     1.02010
O868        O  0.93172513  0.51777107  0.21816123    -0.85920
O869        O  0.90902486  0.47247080  0.25592744    -0.82990
C870        C  0.89621548  0.44726467  0.26224232     0.97550
O871        O  0.87229744  0.43986042  0.24779293    -0.83020
O872        O  0.90213961  0.41480718  0.19800521    -0.85620
C873        C  0.91701929  0.41503129  0.17336567     1.02030
O874        O  0.91649512  0.43807041  0.15588420    -0.78440
O875        O  0.94634812  0.48356776  0.18477103    -0.78590
C876        C  0.95267049  0.50162718  0.20628594     1.01990
Cr877      Cr  0.88894971  0.50293336  0.22767049     1.93740
Cr878      Cr  0.86566177  0.44171780  0.20272765     1.93210
Cr879      Cr  0.90701678  0.48179478  0.16280133     1.39100
O880        O  0.88713193  0.47552536  0.19752939    -1.23680
O881        O  0.82056648  0.37464481  0.99491143    -0.85930
O882        O  0.77890012  0.35294289  0.03797939    -0.82970
C883        C  0.79410721  0.33443129  0.05476278     0.97530
O884        O  0.81770737  0.34387253  0.06830758    -0.83010
O885        O  0.86149672  0.37973109  0.09351466    -0.85650
C886        C  0.88379636  0.37589045  0.07576372     1.02060
O887        O  0.88346144  0.38784230  0.04938378    -0.78410
O888        O  0.85464226  0.41163106  0.99710573    -0.78600
C889        C  0.84534317  0.38656795  0.98598164     1.02010
O890        O  0.79657279  0.43694166  0.00260310    -0.85920
O891        O  0.76032514  0.41680608  0.04944369    -0.82990
C892        C  0.75540653  0.40682318  0.07606606     0.97550
O893        O  0.77230493  0.38593093  0.08656684    -0.83020
O894        O  0.81831156  0.42544581  0.10706992    -0.85620
C895        C  0.84282959  0.44085279  0.10695732     1.02030
O896        O  0.86068422  0.43964553  0.08416260    -0.78440
O897        O  0.82914077  0.45965731  0.03381283    -0.78590
C898        C  0.80716876  0.46104384  0.01504612     1.01990
Cr899      Cr  0.79124761  0.39568045  0.02272251     1.93740
Cr900      Cr  0.81756570  0.38499925  0.08626654     1.93210
Cr901      Cr  0.85447571  0.42317607  0.04139430     1.39100
O902        O  0.82116649  0.40147725  0.05002537    -1.23680
O903        O  0.02724004  0.33379751  0.14580159    -0.85930
O904        O  0.98633490  0.30579465  0.18614651    -0.82970
C905        C  0.96112500  0.29750276  0.19760164     0.97530
O906        O  0.93768037  0.29795411  0.18099189    -0.83010
O907        O  0.92967489  0.36176137  0.17402885    -0.85650
C908        C  0.93235541  0.38782839  0.16152639     1.02060
O909        O  0.94492238  0.39091754  0.13559217    -0.78410
O910        O  0.00464218  0.37740797  0.13580935    -0.78600
C911        C  0.02725814  0.36289388  0.14589588     1.02010
O912        O  0.00161145  0.29672647  0.09681368    -0.85920
O913        O  0.96359683  0.26736390  0.13593215    -0.82990
C914        C  0.93721448  0.26636648  0.12340774     0.97550
O915        O  0.92159022  0.29030749  0.11935898    -0.83020
O916        O  0.90464668  0.35036699  0.11660896    -0.85620
C917        C  0.90976724  0.35960227  0.08994898     1.02030
O918        O  0.93647276  0.35790469  0.07935615    -0.78440
O919        O  0.99858407  0.34385044  0.07978767    -0.78590
C920        C  0.00446969  0.31589484  0.07544666     1.01990
Cr921      Cr  0.99265492  0.30336001  0.14052286     1.93740
Cr922      Cr  0.92664850  0.32541776  0.14663018     1.93210
Cr923      Cr  0.97092287  0.36438479  0.10949711     1.39100
O924        O  0.96381382  0.33120035  0.13211824    -1.23680
O925        O  0.77095512  0.10784679  0.01789938    -0.85930
O926        O  0.73653011  0.12197833  0.06841934    -0.82970
C927        C  0.73247228  0.12763686  0.09651859     0.97530
O928        O  0.74733019  0.14920522  0.10859294    -0.83010
O929        O  0.79622378  0.10998286  0.12378817    -0.85650
C930        C  0.82144287  0.09618190  0.11992071     1.02060
O931        O  0.83754617  0.10205160  0.09659344    -0.78410
O932        O  0.80557319  0.08383863  0.04550727    -0.78600
C933        C  0.78355813  0.08305586  0.02654627     1.02010
O934        O  0.79176445  0.17198161  0.01523519    -0.85920
O935        O  0.75241790  0.18764727  0.06075716    -0.82990
C936        C  0.77013719  0.20581920  0.07509579     0.97550
O937        O  0.79033822  0.19510272  0.09290284    -0.83020
O938        O  0.83702605  0.15852567  0.11337408    -0.85620
C939        C  0.85607854  0.16773102  0.09404352     1.02030
O940        O  0.85438897  0.15789417  0.06681788    -0.78440
O941        O  0.82668449  0.13633050  0.01339260    -0.78590
C942        C  0.81714333  0.16239629  0.00538388     1.01990
Cr943      Cr  0.76471164  0.14684155  0.04225362     1.93740
Cr944      Cr  0.79252372  0.15232080  0.10691209     1.93210
Cr945      Cr  0.82880425  0.12126121  0.05628213     1.39100
O946        O  0.79522397  0.13983941  0.06845151    -1.23680
O947        O  0.44911986  0.01444055  0.25706954    -0.85930
O948        O  0.43458582  0.96528145  0.22113857    -0.82970
C949        C  0.42965465  0.93725922  0.21596483     0.97530
O950        O  0.40886512  0.92409738  0.23089034    -0.83010
O951        O  0.44738707  0.90980587  0.27990536    -0.85650
C952        C  0.45964813  0.91194229  0.30606707     1.02060
O953        O  0.45451880  0.93512044  0.32282204    -0.78410
O954        O  0.47237691  0.98617632  0.29176045    -0.78600
C955        C  0.47353671  0.00392789  0.26904781     1.02010
O956        O  0.38494503  0.01732165  0.27747784    -0.85920
O957        O  0.36858114  0.97266660  0.23797137    -0.82990
C958        C  0.35100158  0.95769066  0.25563172     0.97550
O959        O  0.36247394  0.93903677  0.27431284    -0.83020
O960        O  0.39803514  0.91857092  0.32065108    -0.85620
C961        C  0.39011098  0.93742707  0.34104966     1.02030
O962        O  0.39899002  0.96495285  0.33964305    -0.78440
O963        O  0.41974249  0.01916465  0.31365715    -0.78590
C964        C  0.39448051  0.02813520  0.30253856     1.01990
Cr965      Cr  0.40981084  0.99066671  0.25022560     1.93740
Cr966      Cr  0.40506450  0.92568779  0.27630365     1.93210
Cr967      Cr  0.43524432  0.97588111  0.31453530     1.39100
O968        O  0.41683443  0.96417954  0.28031569    -1.23680
O969        O  0.54526095  0.79046743  0.92260908    -0.85930
O970        O  0.59727093  0.82073099  0.90598442    -0.82970
C971        C  0.62564701  0.82283851  0.90082278     0.97530
O972        O  0.63729655  0.80768832  0.87912573    -0.83010
O973        O  0.65150596  0.75641547  0.91309080    -0.85650
C974        C  0.64590344  0.73325146  0.92929705     1.02060
O975        O  0.62054290  0.71947067  0.92743103    -0.78410
O976        O  0.57303677  0.75660867  0.94715347    -0.78600
C977        C  0.55479083  0.77910460  0.94761635     1.02010
O978        O  0.53874080  0.76870002  0.85928249    -0.85920
O979        O  0.58512809  0.80680222  0.84197756    -0.82990
C980        C  0.59727022  0.78911994  0.82261770     0.97550
O981        O  0.61413025  0.76739446  0.83130441    -0.83020
O982        O  0.63250085  0.71780787  0.86426239    -0.85620
C983        C  0.61072836  0.69904149  0.86139159     1.02030
O984        O  0.58581035  0.70298863  0.87514838    -0.78440
O985        O  0.53629622  0.73506809  0.89623960    -0.78590
C986        C  0.52777071  0.74426451  0.87008126     1.01990
Cr987      Cr  0.56835350  0.79454707  0.88285053     1.93740
Cr988      Cr  0.63087918  0.76264399  0.87309614     1.93210
Cr989      Cr  0.57986986  0.73095251  0.91009550     1.39100
O990        O  0.59324827  0.76266185  0.88884931    -1.23680
O991        O  0.74579110  0.93636223  0.00727490    -0.85930
O992        O  0.78440202  0.91945712  0.05431808    -0.82970
C993        C  0.79129437  0.91306981  0.08164289     0.97530
O994        O  0.77500754  0.89548269  0.09753497    -0.83010
O995        O  0.72422300  0.92805353  0.11590172    -0.85650
C996        C  0.69971165  0.94325522  0.11344776     1.02060
O997        O  0.68379774  0.94197063  0.08944354    -0.78410
O998        O  0.71545709  0.96033182  0.03872157    -0.78600
C999        C  0.73649341  0.96113029  0.01910496     1.02010
O1000       O  0.72446871  0.87321266  0.00310853    -0.85920
O1001       O  0.76931047  0.85615916  0.04531276    -0.82990
C1002       C  0.75784290  0.83715698  0.06379349     0.97550
O1003       O  0.73698336  0.84509614  0.08185277    -0.83020
O1004       O  0.68728981  0.87559557  0.10254117    -0.85620
C1005       C  0.66427099  0.87470068  0.08506449     1.02030
O1006       O  0.66372379  0.88889589  0.05983938    -0.78440
O1007       O  0.68889805  0.90871680  0.00506778    -0.78590
C1008       C  0.69927505  0.88414375  0.99370143     1.01990
Cr1009     Cr  0.75355222  0.89666871  0.02973717     1.93740
Cr1010     Cr  0.73044785  0.88744569  0.09605372     1.93210
Cr1011     Cr  0.69108710  0.92331552  0.04869491     1.39100
O1012       O  0.72485787  0.90216589  0.05831346    -1.23680
O1013       O  0.53172712  0.81352189  0.09369549    -0.85930
O1014       O  0.57721873  0.77436691  0.11559216    -0.82970
C1015       C  0.60312511  0.76749807  0.12678641     0.97530
O1016       O  0.61670063  0.78585250  0.14449747    -0.83010
O1017       O  0.63757623  0.83577032  0.11151796    -0.85650
C1018       C  0.63643727  0.86090858  0.09720960     1.02060
O1019       O  0.61273339  0.87733328  0.09775502    -0.78410
O1020       O  0.56359843  0.84661548  0.07392024    -0.78600
C1021       C  0.54440413  0.82532563  0.07043184     1.02010
O1022       O  0.52195150  0.83474085  0.15686720    -0.85920
O1023       O  0.56318592  0.79076865  0.17758746    -0.82990
C1024       C  0.58017189  0.80304803  0.19773652     0.97550
O1025       O  0.59668568  0.82561513  0.19111958    -0.83020
O1026       O  0.62135057  0.87349896  0.16107714    -0.85620
C1027       C  0.60382895  0.89622890  0.16220037     1.02030
O1028       O  0.57806183  0.89627972  0.14873545    -0.78440
O1029       O  0.52585459  0.87054796  0.12223120    -0.78590
C1030       C  0.51328758  0.86018516  0.14603353     1.01990
Cr1031     Cr  0.55043660  0.80590234  0.13559543     1.93740
Cr1032     Cr  0.61492339  0.83042778  0.15046159     1.93210
Cr1033     Cr  0.57040114  0.86969743  0.11224735     1.39100
O1034       O  0.57872023  0.83528963  0.13265326    -1.23680
O1035       O  0.61464806  0.02599070  0.22205844    -0.85930
O1036       O  0.63533775  0.98148753  0.26085721    -0.82970
C1037       C  0.64420962  0.95471488  0.26711486     0.97530
O1038       O  0.66392832  0.94132488  0.25097482    -0.83010
O1039       O  0.63111170  0.92264039  0.20029969    -0.85650
C1040       C  0.61731648  0.92379589  0.17484875     1.02060
O1041       O  0.62073456  0.94627335  0.15721327    -0.78410
O1042       O  0.59620380  0.99341905  0.18846822    -0.78600
C1043       C  0.59223104  0.01088956  0.21100855     1.02010
O1044       O  0.67879066  0.03650987  0.20281929    -0.85920
O1045       O  0.69862363  0.99442978  0.24715409    -0.82990
C1046       C  0.71841052  0.97678070  0.23516263     0.97550
O1047       O  0.71161415  0.96138535  0.21182979    -0.83020
O1048       O  0.68235595  0.93774711  0.16289371    -0.85620
C1049       C  0.68544350  0.95606829  0.14085666     1.02030
O1050       O  0.67231899  0.98203605  0.14095686    -0.78440
O1051       O  0.64322526  0.03307146  0.16774837    -0.78590
C1052       C  0.66741371  0.04535006  0.17765282     1.01990
Cr1053     Cr  0.65679629  0.00801506  0.23089114     1.93740
Cr1054     Cr  0.67091433  0.94365106  0.20622093     1.93210
Cr1055     Cr  0.63469897  0.98850766  0.16628072     1.39100
O1056       O  0.65421458  0.98001255  0.20118501    -1.23680
C1057       C  0.63619551  0.83929259  0.95357995    -0.20880
C1058       C  0.64533447  0.83995708  0.92289596    -0.07450
C1059       C  0.67347172  0.85429796  0.91547151     0.13420
C1060       C  0.69106296  0.86824449  0.93898735    -0.20940
C1061       C  0.68111776  0.86821072  0.96956945    -0.07460
C1062       C  0.65326741  0.85340359  0.97672749     0.13410
C1063       C  0.64106010  0.85214223  0.00875761    -0.24290
H1064       H  0.61563160  0.82695833  0.95978019     0.14690
H1065       H  0.71242512  0.87953480  0.93345346     0.14720
C1066       C  0.68477132  0.85548521  0.88297773    -0.24240
H1067       H  0.62027216  0.83757888  0.01051347     0.04930
H1068       H  0.63427136  0.87559203  0.01567134     0.08160
H1069       H  0.65869276  0.84237212  0.02436815     0.08160
H1070       H  0.66719641  0.86641705  0.86807181     0.08140
H1071       H  0.68963815  0.83198572  0.87457036     0.08140
H1072       H  0.70625754  0.86895157  0.88113783     0.04920
C1073       C  0.53783459  0.77191870  0.00176891    -0.20880
C1074       C  0.54482685  0.79205706  0.97768094    -0.07450
C1075       C  0.54412205  0.82400938  0.98364283     0.13420
C1076       C  0.54229652  0.83437596  0.01411184    -0.20940
C1077       C  0.53811813  0.81400063  0.03863370    -0.07460
C1078       C  0.53256069  0.78275844  0.03175007     0.13410
C1079       C  0.52071634  0.76088831  0.05550832    -0.24290
H1080       H  0.53627448  0.74757890  0.99703651     0.14690
H1081       H  0.54478696  0.85863157  0.01890327     0.14720
C1082       C  0.54591518  0.84746398  0.95844412    -0.24240
H1083       H  0.51812761  0.73730729  0.04624730     0.04930
H1084       H  0.49790628  0.76879489  0.06342330     0.08160
H1085       H  0.53634978  0.75991462  0.07540658     0.08160
H1086       H  0.52661613  0.84416508  0.94210173     0.08140
H1087       H  0.56783707  0.84548631  0.94624361     0.08140
H1088       H  0.54437096  0.87122047  0.96748534     0.04920
C1089       C  0.44518586  0.88650654  0.19444128    -0.20880
C1090       C  0.44897101  0.91865747  0.19442073    -0.07450
C1091       C  0.47274551  0.93117809  0.17627596     0.13420
C1092       C  0.49241330  0.91137631  0.16011436    -0.20940
C1093       C  0.48955617  0.87926774  0.16160860    -0.07460
C1094       C  0.46512220  0.86676853  0.17857825     0.13410
C1095       C  0.45956786  0.83271438  0.17984849    -0.24290
H1096       H  0.42703342  0.87642288  0.20789924     0.14690
H1097       H  0.51099853  0.92115054  0.14698304     0.14720
C1098       C  0.47797448  0.96522289  0.17374625    -0.24240
H1099       H  0.43833027  0.82712361  0.19256438     0.04930
H1100       H  0.47886055  0.82112689  0.19175331     0.08160
H1101       H  0.45712601  0.82345366  0.15624659     0.08160
H1102       H  0.48450990  0.97482837  0.19634747     0.08140
H1103       H  0.45683817  0.97660194  0.16519052     0.08140
H1104       H  0.49677762  0.97072408  0.15762064     0.04920
C1105       C  0.52038762  0.98154202  0.24901136    -0.20880
C1106       C  0.50369779  0.00834160  0.25441441    -0.07450
C1107       C  0.51605374  0.03687172  0.24540353     0.13420
C1108       C  0.54550926  0.03774685  0.23196423    -0.20940
C1109       C  0.56175467  0.01053629  0.22592402    -0.07460
C1110       C  0.54848921  0.98208374  0.23408777     0.13410
C1111       C  0.56363069  0.95183435  0.22711025    -0.24290
H1112       H  0.51060436  0.95961353  0.25538007     0.14690
H1113       H  0.55547345  0.05950552  0.22546888     0.14720
C1114       C  0.49857515  0.06614221  0.25044479    -0.24240
H1115       H  0.55145576  0.93219809  0.23768341     0.04930
H1116       H  0.58737491  0.95194030  0.23601231     0.08160
H1117       H  0.56369003  0.94795545  0.20200174     0.08160
H1118       H  0.49353850  0.06894004  0.27519508     0.08140
H1119       H  0.47672365  0.06552274  0.23731406     0.08140
H1120       H  0.51179532  0.08642326  0.24272957     0.04920
C1121       C  0.67784035  0.06613039  0.12621888    -0.20880
C1122       C  0.68243406  0.06862229  0.15806075    -0.07450
C1123       C  0.70167786  0.09200304  0.16943843     0.13420
C1124       C  0.71602033  0.11182810  0.14865376    -0.20940
C1125       C  0.71267586  0.10839909  0.11659290    -0.07460
C1126       C  0.69304220  0.08511461  0.10540885     0.13410
C1127       C  0.68880844  0.07889476  0.07178046    -0.24290
H1128       H  0.66330755  0.04802836  0.11730412     0.14690
H1129       H  0.73108506  0.12938370  0.15772898     0.14720
C1130       C  0.70723626  0.09636027  0.20327900    -0.24240
H1131       H  0.67135553  0.06090285  0.06731315     0.04930
H1132       H  0.71079274  0.07041533  0.06244681     0.08160
H1133       H  0.68123994  0.10004674  0.05980565     0.08160
H1134       H  0.71938760  0.07612980  0.21282877     0.08140
H1135       H  0.68505821  0.09957052  0.21520266     0.08140
H1136       H  0.72168677  0.11677334  0.20804021     0.04920
C1137       C  0.79244499  0.02740995  0.01781343    -0.20880
C1138       C  0.77240492  0.05251766  0.01547923    -0.07450
C1139       C  0.74173691  0.04685260  0.00609434     0.13420
C1140       C  0.73077273  0.01642333  0.00575278    -0.20940
C1141       C  0.75037245  0.99133223  0.01106981    -0.07460
C1142       C  0.78224848  0.99711854  0.01415805     0.13410
C1143       C  0.80642167  0.97246993  0.01493846    -0.24290
H1144       H  0.81645186  0.03138404  0.02298078     0.14690
H1145       H  0.70659696  0.01218522  0.00182490     0.14720
C1146       C  0.72048445  0.07232747  0.99624925    -0.24240
H1147       H  0.82476588  0.97828415  0.99839908     0.04930
H1148       H  0.79787979  0.94975610  0.00795965     0.08160
H1149       H  0.81672065  0.97111310  0.03822347     0.08160
H1150       H  0.73025281  0.08407630  0.97598897     0.08140
H1151       H  0.71728749  0.08935176  0.01472679     0.08140
H1152       H  0.69750812  0.06349099  0.98968067     0.04920
C1153       C  0.90611154  0.19451598  0.08618668    -0.20880
C1154       C  0.87964900  0.19019930  0.10400680    -0.07450
C1155       C  0.87539604  0.20869610  0.13060501     0.13420
C1156       C  0.89638286  0.23183305  0.13712660    -0.20940
C1157       C  0.92143714  0.23727423  0.11829791    -0.07460
C1158       C  0.92715307  0.21800376  0.09312116     0.13410
C1159       C  0.95471535  0.22302030  0.07325591    -0.24290
H1160       H  0.90994393  0.17997873  0.06647997     0.14690
H1161       H  0.89245784  0.24695738  0.15645899     0.14720
C1162       C  0.84834223  0.20572942  0.15189728    -0.24240
H1163       H  0.95644283  0.20547956  0.05495224     0.04930
H1164       H  0.97584631  0.22164744  0.08748032     0.08160
H1165       H  0.95332966  0.24596417  0.06236817     0.08160
H1166       H  0.84844522  0.18282394  0.16292904     0.08140
H1167       H  0.82665462  0.20941142  0.13908012     0.08140
H1168       H  0.84893015  0.22294482  0.17066811     0.04920
C1169       C  0.76703881  0.28582377  0.03899461    -0.20880
C1170       C  0.78346034  0.30256695  0.06120173    -0.07450
C1171       C  0.78924996  0.28860589  0.09009352     0.13420
C1172       C  0.78206946  0.25768688  0.09441477    -0.20940
C1173       C  0.76881987  0.23985345  0.07112736    -0.07460
C1174       C  0.75924348  0.25472404  0.04376579     0.13410
C1175       C  0.74123623  0.23809018  0.01944271    -0.24290
H1176       H  0.76106688  0.29680707  0.01751101     0.14690
H1177       H  0.78800158  0.24699098  0.11605773     0.14720
C1178       C  0.80274405  0.30591781  0.11698601    -0.24240
H1179       H  0.73588414  0.25310027  0.99957455     0.04930
H1180       H  0.71925469  0.22995414  0.02916223     0.08160
H1181       H  0.75441823  0.21823240  0.01097478     0.08160
H1182       H  0.78919365  0.32703063  0.12131714     0.08140
H1183       H  0.82702450  0.31182594  0.11256735     0.08140
H1184       H  0.80246591  0.29209945  0.13834987     0.04920
C1185       C  0.07866777  0.42903358  0.17230466    -0.20880
C1186       C  0.10063542  0.41363210  0.19007984    -0.07450
C1187       C  0.10072450  0.38102582  0.18978627     0.13420
C1188       C  0.07715168  0.36520552  0.17433132    -0.20940
C1189       C  0.05365765  0.38078611  0.15866298    -0.07460
C1190       C  0.05545456  0.41336101  0.15648847     0.13410
C1191       C  0.03318237  0.43243816  0.13790177    -0.24290
H1192       H  0.07891031  0.45386255  0.17162291     0.14690
H1193       H  0.07662772  0.34040220  0.17532481     0.14720
C1194       C  0.12502614  0.36239478  0.20596694    -0.24240
H1195       H  0.03966106  0.45704506  0.13753069     0.04930
H1196       H  0.00992000  0.43124291  0.14790991     0.08160
H1197       H  0.03278401  0.42432638  0.11377508     0.08160
H1198       H  0.12428218  0.36658495  0.23098551     0.08140
H1199       H  0.14796202  0.36851293  0.19698393     0.08140
H1200       H  0.12178674  0.33740215  0.20237507     0.04920
C1201       C  0.02932817  0.47516926  0.23773186    -0.20880
C1202       C  0.04417653  0.50292144  0.24404397    -0.07450
C1203       C  0.02933316  0.53080818  0.23697988     0.13420
C1204       C  0.99933568  0.53013913  0.22458517    -0.20940
C1205       C  0.98444757  0.50215374  0.21849972    -0.07460
C1206       C  0.99988053  0.47430475  0.22504768     0.13410
C1207       C  0.98504404  0.44339581  0.22014689    -0.24290
H1208       H  0.04090653  0.45379863  0.24311486     0.14690
H1209       H  0.98752154  0.55142835  0.21958100     0.14720
C1210       C  0.04468588  0.56099797  0.24334708    -0.24240
H1211       H  0.99986652  0.42433325  0.22832316     0.04930
H1212       H  0.98067013  0.43945906  0.19541168     0.08160
H1213       H  0.96314727  0.44221462  0.23290280     0.08160
H1214       H  0.06613911  0.56265490  0.22991228     0.08140
H1215       H  0.05025297  0.56285821  0.26813625     0.08140
H1216       H  0.02973414  0.58061987  0.23695064     0.04920
C1217       C  0.88824781  0.35975260  0.91520993    -0.20880
C1218       C  0.90918644  0.33908243  0.92852095    -0.07450
C1219       C  0.90821317  0.33389354  0.96052893     0.13420
C1220       C  0.88637307  0.34920217  0.97824723    -0.20940
C1221       C  0.86568440  0.36987188  0.96502555    -0.07460
C1222       C  0.86683560  0.37570061  0.93329582     0.13410
C1223       C  0.84540461  0.39849830  0.91869154    -0.24290
H1224       H  0.88864336  0.36336322  0.89064791     0.14690
H1225       H  0.88553513  0.34515485  0.00274313     0.14720
C1226       C  0.92950584  0.31158555  0.97614098    -0.24240
H1227       H  0.84920338  0.40029822  0.89361438     0.04930
H1228       H  0.84906296  0.42148389  0.92902203     0.08160
H1229       H  0.82132367  0.39135419  0.92250092     0.08160
H1230       H  0.95335184  0.31957361  0.97339163     0.08140
H1231       H  0.92688289  0.28843426  0.96595615     0.08140
H1232       H  0.92496544  0.30976026  0.00109584     0.04920
C1233       C  0.01272692  0.31144177  0.98882611    -0.20880
C1234       C  0.00785318  0.27996830  0.98458137    -0.07450
C1235       C  0.01036018  0.26013021  0.00999696     0.13420
C1236       C  0.01288737  0.27273734  0.03942280    -0.20940
C1237       C  0.01213832  0.30464760  0.04417463    -0.07460
C1238       C  0.01437034  0.32423529  0.01829576     0.13410
C1239       C  0.01721331  0.35858263  0.02102574    -0.24290
H1240       H  0.01232240  0.32649918  0.96908109     0.14690
H1241       H  0.01326751  0.25738958  0.05890472     0.14720
C1242       C  0.01049283  0.22575300  0.00637183    -0.24240
H1243       H  0.02141236  0.36948550  0.99844914     0.04930
H1244       H  0.03680160  0.36445348  0.03627829     0.08160
H1245       H  0.99569391  0.36858399  0.03005444     0.08160
H1246       H  0.02865316  0.21890110  0.99000912     0.08140
H1247       H  0.98799695  0.21754026  0.99795219     0.08140
H1248       H  0.01513829  0.21399881  0.02848473     0.04920
C1249       C  0.85134025  0.21660764  0.94575298    -0.20880
C1250       C  0.88238660  0.21569073  0.95461550    -0.07450
C1251       C  0.89097480  0.19900902  0.98099580     0.13420
C1252       C  0.86882400  0.18227937  0.99663843    -0.20940
C1253       C  0.83799916  0.18206045  0.98735790    -0.07460
C1254       C  0.82897408  0.19981766  0.96178966     0.13410
C1255       C  0.79648386  0.19952804  0.95015820    -0.24290
H1256       H  0.84483167  0.22917713  0.92531415     0.14690
H1257       H  0.87592997  0.16878337  0.01616475     0.14720
C1258       C  0.92340696  0.19888859  0.99318720    -0.24240
H1259       H  0.79381879  0.21336049  0.92895463     0.04930
H1260       H  0.78108843  0.20932332  0.96764032     0.08160
H1261       H  0.78939843  0.17565289  0.94493406     0.08160
H1262       H  0.93107108  0.22279588  0.99738145     0.08140
H1263       H  0.93908986  0.18733286  0.97698031     0.08140
H1264       H  0.92526340  0.18612587  0.01503664     0.04920
C1265       C  0.63944116  0.69927457  0.08607777    -0.20880
C1266       C  0.66454549  0.69464350  0.10572804    -0.07450
C1267       C  0.66536441  0.70914397  0.13455683     0.13420
C1268       C  0.64253209  0.73017968  0.14179274    -0.20940
C1269       C  0.61954862  0.73832723  0.12050241    -0.07460
C1270       C  0.61685108  0.72120218  0.09305566     0.13410
C1271       C  0.59089326  0.72607699  0.07093261    -0.24290
H1272       H  0.63833860  0.68685757  0.06458413     0.14690
H1273       H  0.64385541  0.74179953  0.16374255     0.14720
C1274       C  0.69037133  0.70277331  0.15778601    -0.24240
H1275       H  0.59087696  0.75008778  0.06258163     0.04930
H1276       H  0.59256086  0.71072409  0.05069478     0.08160
H1277       H  0.56912408  0.72065103  0.08269505     0.08160
H1278       H  0.71284317  0.71067676  0.14908647     0.08140
H1279       H  0.69141328  0.67783920  0.16263692     0.08140
H1280       H  0.68624295  0.71486179  0.17979534     0.04920
C1281       C  0.78818503  0.75945634  0.08947969    -0.20880
C1282       C  0.77817532  0.74065642  0.06519193    -0.07450
C1283       C  0.76436441  0.75496171  0.03913642     0.13420
C1284       C  0.75991313  0.78677219  0.03873877    -0.20940
C1285       C  0.76816193  0.80492932  0.06369562    -0.07460
C1286       C  0.78339264  0.79143595  0.08896142     0.13410
C1287       C  0.79463433  0.81085529  0.11524743    -0.24290
H1288       H  0.79904780  0.74904740  0.10929215     0.14690
H1289       H  0.74824590  0.79741710  0.01947134     0.14720
C1290       C  0.75158987  0.73698424  0.01260730    -0.24240
H1291       H  0.80672266  0.79690523  0.13283868     0.04930
H1292       H  0.77502886  0.82250861  0.12639528     0.08160
H1293       H  0.81085995  0.82839615  0.10660936     0.08160
H1294       H  0.73424027  0.72104210  0.02166334     0.08140
H1295       H  0.77011254  0.72428763  0.00076561     0.08140
H1296       H  0.74007316  0.75175933  0.99529772     0.04920
C1297       C  0.68098352  0.69837398  0.99923943    -0.20880
C1298       C  0.70509002  0.68087983  0.98669601    -0.07450
C1299       C  0.71283016  0.68519709  0.95562715     0.13420
C1300       C  0.69455943  0.70486948  0.93746075    -0.20940
C1301       C  0.66917466  0.72029852  0.94992523    -0.07460
C1302       C  0.66305103  0.71789875  0.98135211     0.13410
C1303       C  0.63727590  0.73563417  0.99600446    -0.24290
H1304       H  0.67584015  0.69655231  0.02342457     0.14690
H1305       H  0.69900671  0.70685837  0.91313595     0.14720
C1306       C  0.73911187  0.66822174  0.94130706    -0.24240
H1307       H  0.63692170  0.73239903  0.02121431     0.04930
H1308       H  0.61487027  0.72793263  0.98668156     0.08160
H1309       H  0.64016121  0.76048764  0.99142808     0.08160
H1310       H  0.73557963  0.64314761  0.94366521     0.08140
H1311       H  0.76088029  0.67484897  0.95278722     0.08140
H1312       H  0.74123757  0.67359518  0.91653687     0.04920
C1313       C  0.85810455  0.61306520  0.12796272    -0.20880
C1314       C  0.82982543  0.60374379  0.11550520    -0.07450
C1315       C  0.81897490  0.57382270  0.12204101     0.13420
C1316       C  0.83539832  0.55492388  0.14211059    -0.20940
C1317       C  0.86302126  0.56441933  0.15532619    -0.07460
C1318       C  0.87513194  0.59339667  0.14745828     0.13410
C1319       C  0.90536974  0.60381300  0.16043854    -0.24290
H1320       H  0.86624200  0.63606754  0.12347232     0.14690
H1321       H  0.82665356  0.53223083  0.14722151     0.14720
C1322       C  0.78981471  0.56101054  0.10847584    -0.24240
H1323       H  0.91136533  0.62720006  0.15246354     0.04930
H1324       H  0.92379179  0.58787903  0.15313624     0.08160
H1325       H  0.90428747  0.60410980  0.18585093     0.08160
H1326       H  0.77874231  0.57684053  0.09208819     0.08140
H1327       H  0.77332263  0.55590202  0.12706074     0.08140
H1328       H  0.79496380  0.53949096  0.09587805     0.04920
C1329       C  0.76269340  0.49501966  0.02163404    -0.20880
C1330       C  0.79233328  0.49107402  0.01016933    -0.07450
C1331       C  0.80913392  0.51695414  0.00088228     0.13420
C1332       C  0.79674840  0.54632753  0.00542795    -0.20940
C1333       C  0.76816862  0.55054471  0.01969694    -0.07460
C1334       C  0.75042489  0.52434244  0.02691877     0.13410
C1335       C  0.71971372  0.52678330  0.04239117    -0.24290
H1336       H  0.75020725  0.47505882  0.02901606     0.14690
H1337       H  0.81021927  0.56618570  0.99919291     0.14720
C1338       C  0.84036614  0.51358100  0.98674451    -0.24240
H1339       H  0.70964552  0.50394020  0.04709601     0.04930
H1340       H  0.70336860  0.53939739  0.02744772     0.08160
H1341       H  0.72226442  0.53879195  0.06468699     0.08160
H1342       H  0.83870754  0.49894208  0.96596702     0.08140
H1343       H  0.85652499  0.50292481  0.00331341     0.08140
H1344       H  0.84998278  0.53608805  0.97988732     0.04920
C1345       C  0.94357842  0.69137607  0.80527343    -0.20880
C1346       C  0.94022279  0.66037252  0.81351674    -0.07450
C1347       C  0.95708142  0.64943091  0.83904634     0.13420
C1348       C  0.98023506  0.66782418  0.85184717    -0.20940
C1349       C  0.98595202  0.69784716  0.84140183    -0.07460
C1350       C  0.96550581  0.71043605  0.81942272     0.13410
C1351       C  0.96596609  0.74386036  0.81107747    -0.24290
H1352       H  0.92973518  0.70060490  0.78675487     0.14690
H1353       H  0.99410790  0.65824004  0.87016695     0.14720
C1354       C  0.95061288  0.61930818  0.85450683    -0.24240
H1355       H  0.94708222  0.74995254  0.79501906     0.04930
H1356       H  0.98766759  0.74955283  0.79972424     0.08160
H1357       H  0.96336176  0.75802642  0.83205277     0.08160
H1358       H  0.94464223  0.62366599  0.87882875     0.08140
H1359       H  0.93109878  0.60674122  0.84420272     0.08140
H1360       H  0.97143536  0.60473585  0.85414866     0.04920
C1361       C  0.02390876  0.55393093  0.73489763    -0.20880
C1362       C  0.00020478  0.55792812  0.75615495    -0.07450
C1363       C  0.00710087  0.55398689  0.78765563     0.13420
C1364       C  0.03787906  0.55129659  0.79717548    -0.20940
C1365       C  0.06203139  0.55032935  0.77599837    -0.07460
C1366       C  0.05448446  0.54911957  0.74433387     0.13410
C1367       C  0.07835031  0.54422777  0.72012314    -0.24290
H1368       H  0.01858126  0.55545078  0.71065165     0.14690
H1369       H  0.04321569  0.55090054  0.82146706     0.14720
C1370       C  0.98239547  0.55388206  0.81148721    -0.24240
H1371       H  0.06801161  0.54241300  0.69687222     0.04930
H1372       H  0.09111185  0.52267048  0.72466253     0.08160
H1373       H  0.09415505  0.56385206  0.71983924     0.08160
H1374       H  0.96663818  0.53434767  0.80733410     0.08140
H1375       H  0.96941024  0.57557071  0.81023075     0.08140
H1376       H  0.99189605  0.55153481  0.83503885     0.04920
C1377       C  0.23452705  0.48698776  0.86871909    -0.20880
C1378       C  0.21958819  0.46156218  0.88115805    -0.07450
C1379       C  0.18862879  0.45615033  0.87356175     0.13420
C1380       C  0.17330995  0.47647909  0.85349579    -0.20940
C1381       C  0.18858901  0.50165682  0.84044388    -0.07460
C1382       C  0.21957033  0.50706823  0.84850501     0.13410
C1383       C  0.23665891  0.53475202  0.83703755    -0.24290
H1384       H  0.25817113  0.49118586  0.87496795     0.14690
H1385       H  0.14933949  0.47279179  0.84804073     0.14720
C1386       C  0.17183430  0.42928847  0.88695056    -0.24240
H1387       H  0.26037695  0.53583745  0.84637055     0.04930
H1388       H  0.22456450  0.55600487  0.84398176     0.08160
H1389       H  0.23821613  0.53390998  0.81177098     0.08160
H1390       H  0.17185014  0.43107383  0.91233889     0.08140
H1391       H  0.18332902  0.40763629  0.88014224     0.08140
H1392       H  0.14767129  0.42839434  0.87887392     0.04920
C1393       C  0.26392732  0.52511692  0.99869386    -0.20880
C1394       C  0.28068389  0.51816265  0.97202035    -0.07450
C1395       C  0.28466200  0.54139423  0.94956302     0.13420
C1396       C  0.27048101  0.56982257  0.95364489    -0.20940
C1397       C  0.25306610  0.57629859  0.97963203    -0.07460
C1398       C  0.25028461  0.55413812  0.00285112     0.13410
C1399       C  0.23220335  0.56084403  0.03132177    -0.24290
H1400       H  0.26100567  0.50763869  0.01605109     0.14690
H1401       H  0.27224448  0.58701608  0.93582446     0.14720
C1402       C  0.30250972  0.53643676  0.92039335    -0.24240
H1403       H  0.23215936  0.54099833  0.04723463     0.04930
H1404       H  0.20811337  0.56628254  0.02506625     0.08160
H1405       H  0.24240835  0.58075726  0.04350772     0.08160
H1406       H  0.29280208  0.51688517  0.90736370     0.08140
H1407       H  0.32696875  0.53197513  0.92589468     0.08140
H1408       H  0.30175631  0.55679883  0.90513501     0.04920
C1409       C  0.16405050  0.71316511  0.08218363    -0.20880
C1410       C  0.13806617  0.72809389  0.06989855    -0.07450
C1411       C  0.13321967  0.72719447  0.03778785     0.13420
C1412       C  0.15425135  0.71194107  0.01905278    -0.20940
C1413       C  0.18017137  0.69749377  0.03126272    -0.07460
C1414       C  0.18500372  0.69761102  0.06319880     0.13410
C1415       C  0.21195261  0.68108340  0.07710894    -0.24290
H1416       H  0.16811188  0.71388110  0.10669606     0.14690
H1417       H  0.15064436  0.71164846  0.99447219     0.14720
C1418       C  0.10697083  0.74365747  0.02268139    -0.24240
H1419       H  0.21227523  0.68315041  0.10247851     0.04930
H1420       H  0.23358006  0.69086213  0.06814838     0.08160
H1421       H  0.21082620  0.65636279  0.07111142     0.08160
H1422       H  0.10848084  0.76841259  0.02830117     0.08140
H1423       H  0.08486446  0.73411579  0.03064726     0.08140
H1424       H  0.10745557  0.74117864  0.99737159     0.04920
C1425       C  0.02296248  0.75454866  0.97872065    -0.20880
C1426       C  0.04622879  0.76277593  0.95815629    -0.07450
C1427       C  0.06809923  0.78468307  0.96759759     0.13420
C1428       C  0.06494315  0.79952902  0.99564722    -0.20940
C1429       C  0.04372771  0.78970660  0.01754441    -0.07460
C1430       C  0.02207521  0.76694042  0.00878686     0.13410
C1431       C  0.99819998  0.75554190  0.03072661    -0.24290
H1432       H  0.00638156  0.73739701  0.97176320     0.14690
H1433       H  0.08207763  0.81649606  0.00173461     0.14720
C1434       C  0.09693063  0.79127249  0.95029708    -0.24240
H1435       H  0.98221124  0.73917742  0.01948780     0.04930
H1436       H  0.98456068  0.77513295  0.03950527     0.08160
H1437       H  0.00933607  0.74336359  0.05012618     0.08160
H1438       H  0.09605232  0.81521685  0.94193895     0.08140
H1439       H  0.10072544  0.77499842  0.93132800     0.08140
H1440       H  0.11710171  0.78886816  0.96575764     0.04920
C1441       C  0.12338331  0.94267298  0.18610003    -0.20880
C1442       C  0.14317055  0.93199610  0.20923742    -0.07450
C1443       C  0.15464782  0.90170836  0.20744972     0.13420
C1444       C  0.14329101  0.88204608  0.18503520    -0.20940
C1445       C  0.12137117  0.89176455  0.16358416    -0.07460
C1446       C  0.11153029  0.92260659  0.16371446     0.13410
C1447       C  0.08893557  0.93445464  0.14035600    -0.24290
H1448       H  0.11663934  0.96639423  0.18576842     0.14690
H1449       H  0.15171279  0.85864136  0.18443850     0.14720
C1450       C  0.17948732  0.88928533  0.22825108    -0.24240
H1451       H  0.08454151  0.95935534  0.14332707     0.04930
H1452       H  0.06673407  0.92234116  0.14283213     0.08160
H1453       H  0.09796303  0.93071817  0.11691151     0.08160
H1454       H  0.17012647  0.87046354  0.24248612     0.08140
H1455       H  0.18966617  0.90681117  0.24347668     0.08140
H1456       H  0.19850024  0.88007605  0.21413168     0.04920
C1457       C  0.26684326  0.95174931  0.27789589    -0.20880
C1458       C  0.25404033  0.97790110  0.26444409    -0.07450
C1459       C  0.27273000  0.99670311  0.24605126     0.13420
C1460       C  0.30398053  0.98885118  0.24204063    -0.20940
C1461       C  0.31698963  0.96276235  0.25627519    -0.07460
C1462       C  0.29748766  0.94371802  0.27407358     0.13410
C1463       C  0.30814465  0.91478182  0.28980437    -0.24290
H1464       H  0.25248153  0.93723154  0.29195865     0.14690
H1465       H  0.31846792  0.00369244  0.22852220     0.14720
C1466       C  0.25971024  0.02445500  0.23025719    -0.24240
H1467       H  0.28901146  0.90186720  0.30038587     0.04930
H1468       H  0.32406212  0.92085392  0.30863194     0.08160
H1469       H  0.31930503  0.89923895  0.27308348     0.08160
H1470       H  0.25109988  0.04094936  0.24756926     0.08140
H1471       H  0.24056351  0.01750479  0.21489539     0.08140
H1472       H  0.27723619  0.03627196  0.21621679     0.04920
C1473       C  0.06227788  0.79147576  0.21423834    -0.20880
C1474       C  0.08926237  0.77743191  0.20375409    -0.07450
C1475       C  0.11183594  0.76831657  0.22510183     0.13420
C1476       C  0.10780706  0.77516968  0.25628267    -0.20940
C1477       C  0.08181907  0.79113175  0.26643660    -0.07460
C1478       C  0.05839312  0.79867437  0.24537975     0.13410
C1479       C  0.03025994  0.81588742  0.25546639    -0.24290
H1480       H  0.04516995  0.79889011  0.19778032     0.14690
H1481       H  0.12560757  0.76920878  0.27266342     0.14720
C1482       C  0.14045189  0.75208340  0.21480018    -0.24240
H1483       H  0.01441361  0.82049430  0.23598793     0.04930
H1484       H  0.03697083  0.83822019  0.26571081     0.08160
H1485       H  0.01778675  0.80218248  0.27276966     0.08160
H1486       H  0.15362123  0.76696217  0.19904567     0.08140
H1487       H  0.13413684  0.73057862  0.20268793     0.08140
H1488       H  0.15554589  0.74606160  0.23447423     0.04920
C1489       C  0.34240717  0.93016209  0.41353083    -0.20880
C1490       C  0.32161629  0.90768406  0.40379098    -0.07450
C1491       C  0.32802521  0.89066714  0.37717166     0.13420
C1492       C  0.35242390  0.89954906  0.35877591    -0.20940
C1493       C  0.36945564  0.92616661  0.36530062    -0.07460
C1494       C  0.36555352  0.94071419  0.39396577     0.13410
C1495       C  0.38535528  0.96714322  0.40410170    -0.24290
H1496       H  0.33998678  0.94031850  0.43572615     0.14690
H1497       H  0.35662695  0.88672446  0.33794177     0.14720
C1498       C  0.30912134  0.86315239  0.36801765    -0.24240
H1499       H  0.38012469  0.97433979  0.42792754     0.04930
H1500       H  0.38131249  0.98725364  0.38906278     0.08160
H1501       H  0.40987005  0.96037318  0.40325414     0.08160
H1502       H  0.28516179  0.87001171  0.36292510     0.08140
H1503       H  0.30936622  0.84612269  0.38690197     0.08140
H1504       H  0.31827815  0.85178352  0.34720149     0.04920
C1505       C  0.16589414  0.09137177  0.36418040    -0.20880
C1506       C  0.18171112  0.07035352  0.34560887    -0.07450
C1507       C  0.21393586  0.06831329  0.34779532     0.13420
C1508       C  0.22961217  0.08740601  0.36818429    -0.20940
C1509       C  0.21401652  0.10849392  0.38653704    -0.07460
C1510       C  0.18187571  0.11091322  0.38442269     0.13410
C1511       C  0.16473306  0.13408892  0.40325937    -0.24290
H1512       H  0.14109221  0.09221449  0.36306713     0.14690
H1513       H  0.25434771  0.08583363  0.36988696     0.14720
C1514       C  0.23189506  0.04535501  0.32934150    -0.24240
H1515       H  0.13968156  0.13309893  0.39873790     0.04930
H1516       H  0.17286951  0.15751253  0.39763924     0.08160
H1517       H  0.16874685  0.12962861  0.42799750     0.08160
H1518       H  0.22916380  0.05060371  0.30464083     0.08140
H1519       H  0.22366354  0.02178367  0.33416469     0.08140
H1520       H  0.25674067  0.04612458  0.33481472     0.04920
C1521       C  0.23490969  0.01851162  0.49152305    -0.20880
C1522       C  0.25509342  0.99428386  0.48490488    -0.07450
C1523       C  0.28629144  0.00148460  0.47946242     0.13420
C1524       C  0.29566371  0.03211546  0.47785460    -0.20940
C1525       C  0.27492631  0.05629497  0.48142899    -0.07460
C1526       C  0.24436760  0.04936027  0.49009534     0.13410
C1527       C  0.22106482  0.07400654  0.49655107    -0.24290
H1528       H  0.21116462  0.01336617  0.49647494     0.14690
H1529       H  0.31925740  0.03721447  0.47214481     0.14720
C1530       C  0.30948047  0.97734089  0.47217628    -0.24240
H1531       H  0.19851399  0.06424068  0.50298769     0.04930
H1532       H  0.21742116  0.08829307  0.47588555     0.08160
H1533       H  0.22903020  0.08849746  0.51593622     0.08160
H1534       H  0.30127777  0.96535257  0.45134943     0.08140
H1535       H  0.31197855  0.96118085  0.49166196     0.08140
H1536       H  0.33246397  0.98706174  0.46733845     0.04920
C1537       C  0.39009934  0.07786100  0.32983277    -0.20880
C1538       C  0.37598659  0.05085181  0.31966887    -0.07450
C1539       C  0.34553693  0.04450483  0.32880335     0.13420
C1540       C  0.33030966  0.06493726  0.34850943    -0.20940
C1541       C  0.34492230  0.09130850  0.35957692    -0.07460
C1542       C  0.37487531  0.09830752  0.34944706     0.13410
C1543       C  0.39075024  0.12752934  0.35896493    -0.24290
H1544       H  0.41335210  0.08272707  0.32274045     0.14690
H1545       H  0.30744408  0.05963101  0.35642126     0.14720
C1546       C  0.32956413  0.01552131  0.31903781    -0.24240
H1547       H  0.41332808  0.13007223  0.34764589     0.04930
H1548       H  0.39480802  0.12771611  0.38406894     0.08160
H1549       H  0.37639477  0.14756408  0.35249245     0.08160
H1550       H  0.34307062  0.99521230  0.32638350     0.08140
H1551       H  0.32704972  0.01547851  0.29381091     0.08140
H1552       H  0.30631936  0.01361194  0.32907099     0.04920
C1553       C  0.86800679  0.91981536  0.11989296    -0.20880
C1554       C  0.86060872  0.94095848  0.14290547    -0.07450
C1555       C  0.83213666  0.95627760  0.14213578     0.13420
C1556       C  0.81123107  0.94933557  0.11878361    -0.20940
C1557       C  0.81777058  0.92679626  0.09691298    -0.07460
C1558       C  0.84675586  0.91242530  0.09682154     0.13410
C1559       C  0.85524938  0.88822600  0.07374329    -0.24290
H1560       H  0.88998320  0.90819020  0.12060343     0.14690
H1561       H  0.78859268  0.95963499  0.11911031     0.14720
C1562       C  0.82272146  0.97803332  0.16720920    -0.24240
H1563       H  0.87620803  0.89542640  0.06138438     0.04930
H1564       H  0.83695138  0.88428029  0.05645673     0.08160
H1565       H  0.85992862  0.86625633  0.08570735     0.08160
H1566       H  0.83884543  0.99746544  0.16818218     0.08140
H1567       H  0.82285150  0.96598793  0.18958047     0.08140
H1568       H  0.79935838  0.98744045  0.16332936     0.04920
C1569       C  0.76685557  0.99700122  0.25906362    -0.20880
C1570       C  0.74933043  0.97205295  0.24876172    -0.07450
C1571       C  0.76243651  0.94229852  0.24972875     0.13420
C1572       C  0.79369979  0.93897307  0.25606998    -0.20940
C1573       C  0.81232654  0.96432733  0.26236324    -0.07460
C1574       C  0.79823392  0.99339146  0.26639788     0.13410
C1575       C  0.81608736  0.02077899  0.27730344    -0.24290
H1576       H  0.75645926  0.01956008  0.25982077     0.14690
H1577       H  0.80406564  0.91642966  0.25450321     0.14720
C1578       C  0.74373745  0.91371790  0.24407028    -0.24240
H1579       H  0.80130562  0.04139334  0.27955554     0.04930
H1580       H  0.83433887  0.02622952  0.26085436     0.08160
H1581       H  0.82640162  0.01588676  0.30009307     0.08160
H1582       H  0.73627920  0.91234366  0.21979080     0.08140
H1583       H  0.72344484  0.91365946  0.25930147     0.08140
H1584       H  0.75713766  0.89260753  0.24898030     0.04920
C1585       C  0.86070003  0.05821232  0.13329007    -0.20880
C1586       C  0.83546056  0.07538205  0.14319014    -0.07450
C1587       C  0.82859755  0.07572134  0.17482897     0.13420
C1588       C  0.84810752  0.06003907  0.19548731    -0.20940
C1589       C  0.87475736  0.04462222  0.18558853    -0.07460
C1590       C  0.88099674  0.04390196  0.15349305     0.13410
C1591       C  0.90801310  0.02865474  0.13787055    -0.24290
H1592       H  0.86573580  0.05698767  0.10899013     0.14690
H1593       H  0.84281735  0.06044185  0.21967453     0.14720
C1594       C  0.80134693  0.09290512  0.18712025    -0.24240
H1595       H  0.92060606  0.04613725  0.12442381     0.04930
H1596       H  0.89934332  0.01095619  0.12168329     0.08160
H1597       H  0.92521538  0.01740772  0.15236442     0.08160
H1598       H  0.77999704  0.08396319  0.17643643     0.08140
H1599       H  0.80364332  0.11772695  0.18210076     0.08140
H1600       H  0.79925382  0.09028666  0.21233519     0.04920
C1601       C  0.94228620  0.88285561  0.31152240    -0.20880
C1602       C  0.94614035  0.91499757  0.31238391    -0.07450
C1603       C  0.97144062  0.92686123  0.32924371     0.13420
C1604       C  0.99196136  0.90664975  0.34376454    -0.20940
C1605       C  0.98903636  0.87471373  0.34123006    -0.07460
C1606       C  0.96350127  0.86266446  0.32528632     0.13410
C1607       C  0.95821794  0.82863519  0.32295880    -0.24290
H1608       H  0.92314816  0.87320262  0.29890711     0.14690
H1609       H  0.01154537  0.91598242  0.35598181     0.14720
C1610       C  0.97821029  0.96059460  0.33116855    -0.24240
H1611       H  0.93627416  0.82327050  0.31111609     0.04930
H1612       H  0.95739157  0.81849629  0.34626410     0.08160
H1613       H  0.97688130  0.81774132  0.30969128     0.08160
H1614       H  0.95815812  0.97300933  0.34062497     0.08140
H1615       H  0.98394789  0.96915340  0.30799206     0.08140
H1616       H  0.99817928  0.96559739  0.34625750     0.04920
C1617       C  0.02473887  0.01091482  0.23023383    -0.20880
C1618       C  0.00103313  0.01509425  0.25127736    -0.07450
C1619       C  0.00805987  0.02799334  0.28029736     0.13420
C1620       C  0.03901666  0.03067505  0.28927626    -0.20940
C1621       C  0.06292699  0.02248796  0.26933830    -0.07460
C1622       C  0.05539128  0.01470716  0.23864162     0.13410
C1623       C  0.07922794  0.00736353  0.21510418    -0.24290
H1624       H  0.01934750  0.00288415  0.20730506     0.14690
H1625       H  0.04453119  0.03817588  0.31233921     0.14720
C1626       C  0.98347746  0.03879229  0.30190944    -0.24240
H1627       H  0.06908152  0.00120058  0.19251630     0.04930
H1628       H  0.09244380  0.98740325  0.22345134     0.08160
H1629       H  0.09443569  0.02741175  0.21157090     0.08160
H1630       H  0.96791813  0.01983898  0.30811200     0.08140
H1631       H  0.96992545  0.05727710  0.29078520     0.08140
H1632       H  0.99335816  0.04817862  0.32346938     0.04920
C1633       C  0.95542922  0.86454615  0.16777968    -0.20880
C1634       C  0.96972001  0.88496824  0.18823560    -0.07450
C1635       C  0.00172866  0.88371072  0.19244618     0.13420
C1636       C  0.01892906  0.86274275  0.17515456    -0.20940
C1637       C  0.00483283  0.84358799  0.15335590    -0.07460
C1638       C  0.97271151  0.84392532  0.15011111     0.13410
C1639       C  0.95689708  0.82318819  0.12744924    -0.24290
H1640       H  0.93080166  0.86578181  0.16456235     0.14690
H1641       H  0.04365869  0.86232735  0.17759306     0.14720
C1642       C  0.01774121  0.90521425  0.21428938    -0.24240
H1643       H  0.93163331  0.82628529  0.12781867     0.04930
H1644       H  0.96210583  0.79891927  0.13309413     0.08160
H1645       H  0.96504058  0.82820365  0.10393484     0.08160
H1646       H  0.00881113  0.90179170  0.23781148     0.08140
H1647       H  0.01361865  0.92931601  0.20721418     0.08140
H1648       H  0.04288907  0.90123039  0.21477279     0.04920
C1649       C  0.13005034  0.65468996  0.65721407    -0.20880
C1650       C  0.12586660  0.68514095  0.66733204    -0.07450
C1651       C  0.12497139  0.69102374  0.69938735     0.13420
C1652       C  0.12898865  0.66691467  0.71979955    -0.20940
C1653       C  0.13533187  0.63718490  0.70982289    -0.07460
C1654       C  0.13527810  0.63063011  0.67820960     0.13410
C1655       C  0.14198129  0.59883826  0.66672336    -0.24290
H1656       H  0.13017781  0.64984379  0.63285998     0.14690
H1657       H  0.12893133  0.67168257  0.74418688     0.14720
C1658       C  0.11995086  0.72243341  0.71301363    -0.24240
H1659       H  0.14152990  0.59776804  0.64129446     0.04930
H1660       H  0.12452163  0.58267689  0.67551667     0.08160
H1661       H  0.16502770  0.59146341  0.67472923     0.08160
H1662       H  0.09812204  0.73239669  0.70453622     0.08140
H1663       H  0.13949405  0.73746110  0.70716095     0.08140
H1664       H  0.11860779  0.72189917  0.73842266     0.04920
C1665       C  0.06384992  0.79432812  0.72032620    -0.20880
C1666       C  0.09287656  0.79881618  0.70696409    -0.07450
C1667       C  0.11906574  0.79819603  0.72634805     0.13420
C1668       C  0.11569703  0.78953302  0.75727423    -0.20940
C1669       C  0.08691580  0.78200558  0.76946954    -0.07460
C1670       C  0.06063013  0.78557730  0.75100113     0.13410
C1671       C  0.02937092  0.77750998  0.76268370    -0.24290
H1672       H  0.04339013  0.79547519  0.70618668     0.14690
H1673       H  0.13581443  0.78766989  0.77184325     0.14720
C1674       C  0.15062534  0.80576654  0.71478018    -0.24240
H1675       H  0.01130526  0.78048926  0.74489289     0.04930
H1676       H  0.02342816  0.79237318  0.78243258     0.08160
H1677       H  0.02949141  0.75309575  0.76975155     0.08160
H1678       H  0.15051088  0.82899306  0.70441248     0.08140
H1679       H  0.15809767  0.78867033  0.69755454     0.08140
H1680       H  0.16789032  0.80566236  0.73357897     0.04920
C1681       C  0.98137196  0.73004645  0.65857563    -0.20880
C1682       C  0.01100583  0.71907954  0.65213590    -0.07450
C1683       C  0.02099081  0.69174580  0.66720411     0.13420
C1684       C  0.00065509  0.67465432  0.68456873    -0.20940
C1685       C  0.97078615  0.68428406  0.68896874    -0.07460
C1686       C  0.96124482  0.71305753  0.67738809     0.13410
C1687       C  0.92993174  0.72547413  0.68457183    -0.24290
H1688       H  0.97376728  0.75144669  0.64851279     0.14690
H1689       H  0.00797382  0.65297594  0.69439600     0.14720
C1690       C  0.05349518  0.68068116  0.66680200    -0.24240
H1691       H  0.92560557  0.74766366  0.67287771     0.04930
H1692       H  0.92800504  0.72917205  0.70966207     0.08160
H1693       H  0.91202467  0.70900277  0.67731390     0.08160
H1694       H  0.06794864  0.70016779  0.67385289     0.08140
H1695       H  0.05979565  0.67197187  0.64381029     0.08140
H1696       H  0.05781433  0.66175197  0.68330285     0.04920
C1697       C  0.14087258  0.87573535  0.52430735    -0.20880
C1698       C  0.17124395  0.88416760  0.53145675    -0.07450
C1699       C  0.18209169  0.87932160  0.56173509     0.13420
C1700       C  0.16341204  0.86368113  0.58279483    -0.20940
C1701       C  0.13419462  0.85281072  0.57451697    -0.07460
C1702       C  0.12252937  0.85985044  0.54518069     0.13410
C1703       C  0.09182609  0.84830346  0.53475106    -0.24290
H1704       H  0.13196045  0.87964081  0.50140291     0.14690
H1705       H  0.17245220  0.85810124  0.60530119     0.14720
C1706       C  0.21326337  0.89008899  0.57204932    -0.24240
H1707       H  0.08590599  0.85614467  0.51123537     0.04930
H1708       H  0.07399054  0.85686904  0.55056535     0.08160
H1709       H  0.09216077  0.82291805  0.53454922     0.08160
H1710       H  0.21555202  0.91505305  0.56769904     0.08140
H1711       H  0.23141955  0.87738658  0.55967887     0.08140
H1712       H  0.21694864  0.88617525  0.59694645     0.04920
C1713       C  0.05111583  0.76373486  0.49577878    -0.20880
C1714       C  0.04040623  0.78296453  0.51910734    -0.07450
C1715       C  0.02666938  0.81131475  0.51071736     0.13420
C1716       C  0.02877038  0.82161280  0.48015655    -0.20940
C1717       C  0.04257933  0.80358030  0.45745698    -0.07460
C1718       C  0.05223609  0.77355039  0.46521340     0.13410
C1719       C  0.06604677  0.75238341  0.44203303    -0.24290
H1720       H  0.06090994  0.74168429  0.50174456     0.14690
H1721       H  0.02005550  0.84407522  0.47404575     0.14720
C1722       C  0.00896198  0.83036663  0.53341999    -0.24240
H1723       H  0.07182984  0.72962346  0.45189755     0.04930
H1724       H  0.08758834  0.76266385  0.43388446     0.08160
H1725       H  0.04965897  0.74863672  0.42287339     0.08160
H1726       H  0.02400227  0.83950587  0.55171713     0.08140
H1727       H  0.99073734  0.81613588  0.54387629     0.08140
H1728       H  0.99775238  0.85030590  0.52218260     0.04920
C1729       C  0.26928504  0.28102189  0.96210945    -0.20880
C1730       C  0.27382942  0.26404539  0.93520054    -0.07450
C1731       C  0.26821410  0.27822456  0.90658280     0.13420
C1732       C  0.26302861  0.30991265  0.90540511    -0.20940
C1733       C  0.26260398  0.32784838  0.93209906    -0.07460
C1734       C  0.26345675  0.31282745  0.96092127     0.13410
C1735       C  0.26018606  0.33017007  0.99046234    -0.24290
H1736       H  0.27237278  0.26983785  0.98408651     0.14690
H1737       H  0.26115311  0.32110337  0.88329881     0.14720
C1738       C  0.26779655  0.26007622  0.87713920    -0.24240
H1739       H  0.26000818  0.31458543  0.01057438     0.04930
H1740       H  0.23842016  0.34334183  0.99035009     0.08160
H1741       H  0.27974613  0.34580975  0.99337511     0.08160
H1742       H  0.25102698  0.24104392  0.87897817     0.08140
H1743       H  0.29082256  0.25060635  0.87223570     0.08140
H1744       H  0.26094718  0.27449476  0.85727995     0.04920
C1745       C  0.42786312  0.33563876  0.91301614    -0.20880
C1746       C  0.42926780  0.32840813  0.88170637    -0.07450
C1747       C  0.41273879  0.34645102  0.86047224     0.13420
C1748       C  0.39219353  0.36840762  0.87131604    -0.20940
C1749       C  0.38763111  0.37308285  0.90286931    -0.07460
C1750       C  0.40742965  0.35805686  0.92391601     0.13410
C1751       C  0.40662917  0.36454696  0.95772960    -0.24290
H1752       H  0.44149165  0.32248616  0.92918086     0.14690
H1753       H  0.37873152  0.38124354  0.85477638     0.14720
C1754       C  0.41649116  0.34277045  0.82632699    -0.24240
H1755       H  0.41158290  0.38913966  0.96200640     0.04930
H1756       H  0.38376187  0.35869403  0.96666644     0.08160
H1757       H  0.42388362  0.35081566  0.97055665     0.08160
H1758       H  0.40682317  0.32062101  0.81875681     0.08140
H1759       H  0.44112876  0.34399162  0.82025763     0.08140
H1760       H  0.40425361  0.36101520  0.81339021     0.04920
C1761       C  0.36984755  0.23951538  0.07026395    -0.20880
C1762       C  0.39782402  0.22654501  0.07961589    -0.07450
C1763       C  0.40663088  0.19798420  0.06721930     0.13420
C1764       C  0.38831966  0.18431543  0.04433716    -0.20940
C1765       C  0.36150061  0.19855689  0.03296177    -0.07460
C1766       C  0.35188393  0.22642690  0.04682806     0.13410
C1767       C  0.32353775  0.24350330  0.03657052    -0.24290
H1768       H  0.36289585  0.26126564  0.08002800     0.14690
H1769       H  0.39569312  0.16269523  0.03461576     0.14720
C1770       C  0.43523150  0.18178108  0.07802123    -0.24240
H1771       H  0.31987708  0.26480556  0.05003286     0.04930
H1772       H  0.30299072  0.22889476  0.03964580     0.08160
H1773       H  0.32574666  0.25032683  0.01217684     0.08160
H1774       H  0.43432227  0.17851459  0.10322762     0.08140
H1775       H  0.45587002  0.19526883  0.07210890     0.08140
H1776       H  0.43767134  0.15886629  0.06719196     0.04920
C1777       C  0.51985569  0.28521679  0.00501842    -0.20880
C1778       C  0.49194271  0.28125789  0.02051837    -0.07450
C1779       C  0.46745948  0.26655886  0.00535666     0.13420
C1780       C  0.47115365  0.25624238  0.97543187    -0.20940
C1781       C  0.49906941  0.25912980  0.95987958    -0.07460
C1782       C  0.52372818  0.27428219  0.97468471     0.13410
C1783       C  0.55401992  0.27841320  0.95899494    -0.24290
H1784       H  0.53851748  0.29690744  0.01658976     0.14690
H1785       H  0.45193096  0.24496770  0.96432279     0.14720
C1786       C  0.43820527  0.25867318  0.02147250    -0.24240
H1787       H  0.57098336  0.28991522  0.97417898     0.04930
H1788       H  0.55096137  0.29278268  0.93822812     0.08160
H1789       H  0.56343675  0.25572634  0.95234823     0.08160
H1790       H  0.42967898  0.27814346  0.03527235     0.08140
H1791       H  0.44306933  0.23895088  0.03652120     0.08140
H1792       H  0.41975487  0.25174825  0.00524523     0.04920
C1793       C  0.34222400  0.35904302  0.01253392    -0.20880
C1794       C  0.33343080  0.38866355  0.02141953    -0.07450
C1795       C  0.34445668  0.40088654  0.04926858     0.13420
C1796       C  0.36577845  0.38398750  0.06652876    -0.20940
C1797       C  0.37631039  0.35529161  0.05647502    -0.07460
C1798       C  0.36398586  0.34238236  0.02946031     0.13410
C1799       C  0.37565452  0.31248495  0.01695940    -0.24290
H1800       H  0.33403831  0.34996941  0.99084986     0.14690
H1801       H  0.37482429  0.39350079  0.08764628     0.14720
C1802       C  0.33360884  0.43154952  0.06082164    -0.24240
H1803       H  0.36353351  0.30574190  0.99554334     0.04930
H1804       H  0.37237650  0.29402347  0.03398322     0.08160
H1805       H  0.40034027  0.31487925  0.01161257     0.08160
H1806       H  0.30827731  0.43126838  0.06313705     0.08140
H1807       H  0.34022284  0.44992344  0.04463544     0.08140
H1808       H  0.34369288  0.43711230  0.08359092     0.04920
C1809       C  0.17491343  0.84470226  0.91198527    -0.20880
C1810       C  0.16356662  0.87441100  0.91182075    -0.07450
C1811       C  0.13282453  0.88015150  0.90366842     0.13420
C1812       C  0.11474271  0.85564637  0.89284884    -0.20940
C1813       C  0.12715553  0.82596069  0.89051235    -0.07460
C1814       C  0.15726839  0.82035584  0.90171250     0.13410
C1815       C  0.17133868  0.78893865  0.90375895    -0.24290
H1816       H  0.19842775  0.84072776  0.91911614     0.14690
H1817       H  0.09139775  0.85979656  0.88533153     0.14720
C1818       C  0.11951894  0.91186814  0.90605906    -0.24240
H1819       H  0.19492260  0.78951436  0.91341354     0.04930
H1820       H  0.17330015  0.77849545  0.88071699     0.08160
H1821       H  0.15745839  0.77476976  0.91945766     0.08160
H1822       H  0.13310550  0.92824215  0.89235558     0.08140
H1823       H  0.12004787  0.91939906  0.93034688     0.08140
H1824       H  0.09539565  0.91258515  0.89784877     0.04920
C1825       C  0.24997108  0.81640419  0.95804106    -0.20880
C1826       C  0.27532598  0.82755266  0.94181591    -0.07450
C1827       C  0.29692785  0.80651871  0.93014417     0.13420
C1828       C  0.29166672  0.77473495  0.93337768    -0.20940
C1829       C  0.26513161  0.76370265  0.94779334    -0.07460
C1830       C  0.24464723  0.78481521  0.96122344     0.13410
C1831       C  0.21676911  0.77400990  0.97836989    -0.24290
H1832       H  0.23339918  0.83257683  0.96701864     0.14690
H1833       H  0.30736329  0.75849726  0.92308256     0.14720
C1834       C  0.32450949  0.81761212  0.91289966    -0.24240
H1835       H  0.20310318  0.79352141  0.98732649     0.04930
H1836       H  0.22401896  0.75962487  0.99809868     0.08160
H1837       H  0.20171604  0.76027827  0.96307342     0.08160
H1838       H  0.33862416  0.83252100  0.92800958     0.08140
H1839       H  0.31707268  0.83091253  0.89248820     0.08140
H1840       H  0.33902813  0.79825882  0.90501284     0.04920
C1841       C  0.21291639  0.86598468  0.02665230    -0.20880
C1842       C  0.20336857  0.89380204  0.01311130    -0.07450
C1843       C  0.17173510  0.90194927  0.01504606     0.13420
C1844       C  0.15180531  0.88290388  0.03114862    -0.20940
C1845       C  0.16154660  0.85603316  0.04589143    -0.07460
C1846       C  0.19257551  0.84705485  0.04298398     0.13410
C1847       C  0.20472650  0.81804850  0.05732167    -0.24290
H1848       H  0.23667635  0.85903789  0.02473897     0.14690
H1849       H  0.12792326  0.88968723  0.03249399     0.14720
C1850       C  0.15640260  0.92975992  0.00081892    -0.24240
H1851       H  0.22941638  0.81456098  0.05234648     0.04930
H1852       H  0.19208739  0.79796249  0.04807193     0.08160
H1853       H  0.20214520  0.81910023  0.08259365     0.08160
H1854       H  0.13743996  0.92195944  0.98563266     0.08140
H1855       H  0.17051941  0.94493313  0.98679337     0.08140
H1856       H  0.14639551  0.94409333  0.01928730     0.04920
C1857       C  0.35014036  0.94800641  0.86158291    -0.20880
C1858       C  0.32841516  0.95927683  0.88255412    -0.07450
C1859       C  0.32178414  0.99106578  0.88252832     0.13420
C1860       C  0.33779471  0.01072205  0.86326698    -0.20940
C1861       C  0.36032206  0.99992621  0.84339913    -0.07460
C1862       C  0.36643142  0.96812773  0.84210033     0.13410
C1863       C  0.39062822  0.95569846  0.82107888    -0.24290
H1864       H  0.35475379  0.92361402  0.86085384     0.14690
H1865       H  0.33284034  0.03510090  0.86390964     0.14720
C1866       C  0.29757570  0.00477617  0.90256399    -0.24240
H1867       H  0.39299152  0.93045280  0.82330804     0.04930
H1868       H  0.41308716  0.96630533  0.82669631     0.08160
H1869       H  0.38449671  0.96100108  0.79694077     0.08160
H1870       H  0.30472594  0.00145441  0.92650029     0.08140
H1871       H  0.27524989  0.99358927  0.89812084     0.08140
H1872       H  0.29462146  0.02979048  0.89883179     0.04920
C1873       C  0.30614553  0.02145337  0.98270400    -0.20880
C1874       C  0.27433703  0.01823652  0.97851936    -0.07450
C1875       C  0.25561222  0.04467820  0.98048549     0.13420
C1876       C  0.26938887  0.07368057  0.98328332    -0.20940
C1877       C  0.30135392  0.07707931  0.98243531    -0.07460
C1878       C  0.31998534  0.05053794  0.98353193     0.13410
C1879       C  0.35442790  0.05266644  0.98507638    -0.24290
H1880       H  0.32053720  0.00119049  0.98228439     0.14690
H1881       H  0.25504322  0.09398046  0.98334110     0.14720
C1882       C  0.22115793  0.04261688  0.97935004    -0.24240
H1883       H  0.36518942  0.02974378  0.98781472     0.04930
H1884       H  0.36136084  0.06699673  0.00497224     0.08160
H1885       H  0.36350400  0.06280372  0.96368683     0.08160
H1886       H  0.21304881  0.02654612  0.99726309     0.08140
H1887       H  0.21338612  0.03461835  0.95647562     0.08140
H1888       H  0.21025186  0.06524646  0.98350685     0.04920
C1889       C  0.60048853  0.18528456  0.80060965    -0.20880
C1890       C  0.60774273  0.15612945  0.81208723    -0.07450
C1891       C  0.59569044  0.14714499  0.84060152     0.13420
C1892       C  0.57369561  0.16591006  0.85485840    -0.20940
C1893       C  0.56404633  0.19393031  0.84177322    -0.07460
C1894       C  0.57894145  0.20430941  0.81484616     0.13410
C1895       C  0.57201136  0.23484072  0.80005451    -0.24290
H1896       H  0.61058066  0.19268416  0.77923459     0.14690
H1897       H  0.56366144  0.15828255  0.87617271     0.14720
C1898       C  0.60713810  0.11886168  0.85684659    -0.24240
H1899       H  0.58681751  0.23922627  0.77991236     0.04930
H1900       H  0.57616489  0.25364684  0.81671493     0.08160
H1901       H  0.54792027  0.23542991  0.79176507     0.08160
H1902       H  0.63221474  0.12084069  0.86074681     0.08140
H1903       H  0.60262875  0.09800529  0.84320660     0.08140
H1904       H  0.59599409  0.11588833  0.87946426     0.04920
C1905       C  0.52170597  0.04628205  0.73316491    -0.20880
C1906       C  0.54353759  0.05734898  0.75419398    -0.07450
C1907       C  0.53549440  0.05964112  0.78539987     0.13420
C1908       C  0.50528792  0.05390519  0.79427287    -0.20940
C1909       C  0.48248337  0.04595029  0.77283841    -0.07460
C1910       C  0.49149684  0.03955093  0.74228139     0.13410
C1911       C  0.47014707  0.02440696  0.71960133    -0.24290
H1912       H  0.52830716  0.04304705  0.70947045     0.14690
H1913       H  0.49910633  0.05796150  0.81794538     0.14720
C1914       C  0.55778006  0.07089391  0.80918549    -0.24240
H1915       H  0.48184314  0.01930788  0.69763712     0.04930
H1916       H  0.45024847  0.03911280  0.71420272     0.08160
H1917       H  0.46186861  0.00240874  0.72923609     0.08160
H1918       H  0.56449192  0.09463006  0.80335751     0.08140
H1919       H  0.57816841  0.05569703  0.81010585     0.08140
H1920       H  0.54762914  0.07137808  0.83246673     0.04920
C1921       C  0.94425091  0.14782544  0.79258907    -0.20880
C1922       C  0.91747114  0.13055765  0.79583732    -0.07450
C1923       C  0.90029233  0.13264125  0.82299807     0.13420
C1924       C  0.90952270  0.15328072  0.84586755    -0.20940
C1925       C  0.93544030  0.17180458  0.84196230    -0.07460
C1926       C  0.95342775  0.16860008  0.81533955     0.13410
C1927       C  0.98113696  0.18831637  0.80999217    -0.24290
H1928       H  0.95695084  0.14648731  0.77139421     0.14690
H1929       H  0.89581141  0.15587382  0.86635168     0.14720
C1930       C  0.87173371  0.11381814  0.82732005    -0.24240
H1931       H  0.99178894  0.18368399  0.78739238     0.04930
H1932       H  0.99841145  0.18331709  0.82795325     0.08160
H1933       H  0.97471048  0.21294731  0.81083030     0.08160
H1934       H  0.87749353  0.08908095  0.82561290     0.08140
H1935       H  0.85453985  0.11966266  0.80940839     0.08140
H1936       H  0.86121063  0.11798569  0.85006487     0.04920
C1937       C  0.75209046  0.13014989  0.75750979    -0.20880
C1938       C  0.73402905  0.10405870  0.76172307    -0.07450
C1939       C  0.74875057  0.07542451  0.76639533     0.13420
C1940       C  0.78050718  0.07282750  0.76080413    -0.20940
C1941       C  0.79775347  0.09857880  0.75239226    -0.07460
C1942       C  0.78379473  0.12793007  0.75368042     0.13410
C1943       C  0.80206731  0.15716133  0.75087141    -0.24290
H1944       H  0.74109026  0.15238872  0.75581484     0.14690
H1945       H  0.79146534  0.05053446  0.76146665     0.14720
C1946       C  0.73119533  0.04762671  0.77651282    -0.24240
H1947       H  0.78784008  0.17767103  0.75589332     0.04930
H1948       H  0.81098508  0.15998917  0.72733129     0.08160
H1949       H  0.82139141  0.15687062  0.76754557     0.08160
H1950       H  0.71273130  0.04232890  0.75999898     0.08140
H1951       H  0.72090611  0.05206976  0.79929560     0.08140
H1952       H  0.74621190  0.02714346  0.77850422     0.04920
C1953       C  0.98646653  0.28938627  0.74960130    -0.20880
C1954       C  0.96012675  0.28035464  0.73341440    -0.07450
C1955       C  0.93131169  0.28214237  0.74798196     0.13420
C1956       C  0.93017324  0.28827746  0.77935275    -0.20940
C1957       C  0.95692141  0.29286749  0.79667407    -0.07460
C1958       C  0.98529209  0.29590090  0.78117605     0.13410
C1959       C  0.01489362  0.30484759  0.79664344    -0.24290
H1960       H  0.00836660  0.28969698  0.73798625     0.14690
H1961       H  0.90825225  0.28745168  0.79090973     0.14720
C1962       C  0.90155382  0.27752377  0.73077856    -0.24240
H1963       H  0.02308791  0.32673198  0.78667258     0.04930
H1964       H  0.03251948  0.28713317  0.79224935     0.08160
H1965       H  0.01302374  0.30813261  0.82161528     0.08160
H1966       H  0.89933165  0.25342629  0.72303058     0.08140
H1967       H  0.90059132  0.29314845  0.71072476     0.08140
H1968       H  0.88139832  0.28259978  0.74536994     0.04920
C1969       C  0.71281588  0.12040301  0.59467369    -0.20880
C1970       C  0.71977630  0.15176276  0.59244605    -0.07450
C1971       C  0.70155283  0.17301092  0.60851762     0.13420
C1972       C  0.68017948  0.16234422  0.62964849    -0.20940
C1973       C  0.67721058  0.13092086  0.63616278    -0.07460
C1974       C  0.69244198  0.10950188  0.61714463     0.13410
C1975       C  0.68897697  0.07542620  0.62151960    -0.24290
H1976       H  0.72487668  0.10424045  0.58043809     0.14690
H1977       H  0.66718184  0.17897369  0.64270918     0.14720
C1978       C  0.70514671  0.20707010  0.60414375    -0.24240
H1979       H  0.70303721  0.06223295  0.60494737     0.04930
H1980       H  0.66467050  0.06873035  0.61807043     0.08160
H1981       H  0.69654381  0.06889471  0.64495879     0.08160
H1982       H  0.70323395  0.21281853  0.57942322     0.08140
H1983       H  0.72767330  0.21458325  0.61315329     0.08140
H1984       H  0.68728238  0.22021749  0.61657088     0.04920
C1985       C  0.85049884  0.95026292  0.64227968    -0.20880
C1986       C  0.82827287  0.96151569  0.62164640    -0.07450
C1987       C  0.82061743  0.99289696  0.62270057     0.13420
C1988       C  0.83519760  0.01241464  0.64344153    -0.20940
C1989       C  0.85810415  0.00173385  0.66294323    -0.07460
C1990       C  0.86611410  0.97035035  0.66252080     0.13410
C1991       C  0.89107485  0.95836415  0.68315686    -0.24290
H1992       H  0.85601615  0.92604794  0.64214203     0.14690
H1993       H  0.82945407  0.03662679  0.64366151     0.14720
C1994       C  0.79696661  0.00622906  0.60185325    -0.24240
H1995       H  0.89452725  0.93333059  0.68008153     0.04930
H1996       H  0.88498111  0.96272132  0.70744151     0.08160
H1997       H  0.91297151  0.97014147  0.67795390     0.08160
H1998       H  0.77532314  0.99312623  0.60309666     0.08140
H1999       H  0.80596843  0.00593913  0.57816664     0.08140
H2000       H  0.79165322  0.03002578  0.60846199     0.04920
C2001       C  0.76307501  0.04045784  0.55042413    -0.20880
C2002       C  0.76798344  0.01909969  0.52684155    -0.07450
C2003       C  0.78481366  0.02850504  0.50073973     0.13420
C2004       C  0.79690460  0.05859170  0.49971366    -0.20940
C2005       C  0.79510297  0.07793686  0.52539044    -0.07460
C2006       C  0.77935197  0.06789020  0.55157977     0.13410
C2007       C  0.78257853  0.08414238  0.58200711    -0.24290
H2008       H  0.74976171  0.03397160  0.57025673     0.14690
H2009       H  0.80932809  0.06628708  0.47972586     0.14720
C2010       C  0.78973542  0.00733786  0.47397023    -0.24240
H2011       H  0.76661142  0.07508009  0.59950090     0.04930
H2012       H  0.77825807  0.10880574  0.57962141     0.08160
H2013       H  0.80632594  0.08117266  0.59074772     0.08160
H2014       H  0.76729758  0.99908324  0.46517034     0.08140
H2015       H  0.80402757  0.98751156  0.48106543     0.08140
H2016       H  0.80176076  0.01905799  0.45493346     0.04920
C2017       C  0.66904060  0.98441626  0.64416038    -0.20880
C2018       C  0.70102037  0.98174160  0.64720088    -0.07450
C2019       C  0.71560689  0.99565673  0.67264792     0.13420
C2020       C  0.69791415  0.01300274  0.69325276    -0.20940
C2021       C  0.66599139  0.01644889  0.68950638    -0.07460
C2022       C  0.65135452  0.00115562  0.66477150     0.13410
C2023       C  0.61713578  0.00216649  0.65926741    -0.24290
H2024       H  0.65743182  0.97337929  0.62512153     0.14690
H2025       H  0.70941850  0.02490854  0.71167557     0.14720
C2026       C  0.74968804  0.99338118  0.67781839    -0.24240
H2027       H  0.60988834  0.98652411  0.64048201     0.04930
H2028       H  0.60993421  0.02558011  0.65238172     0.08160
H2029       H  0.60487949  0.99493179  0.68026482     0.08160
H2030       H  0.76191717  0.00298607  0.65784445     0.08140
H2031       H  0.75643199  0.96908810  0.68125026     0.08140
H2032       H  0.75713344  0.00637010  0.69845948     0.04920
C2033       C  0.20194757  0.10462972  0.87253678    -0.20880
C2034       C  0.18021607  0.12609134  0.86227735    -0.07450
C2035       C  0.18030764  0.15603597  0.87500943     0.13420
C2036       C  0.20440566  0.16474520  0.89441238    -0.20940
C2037       C  0.22795827  0.14426725  0.90175816    -0.07460
C2038       C  0.22624142  0.11354038  0.89175962     0.13410
C2039       C  0.25099849  0.09074228  0.89958413    -0.24290
H2040       H  0.20117145  0.08138397  0.86392576     0.14690
H2041       H  0.20563646  0.18810731  0.90284336     0.14720
C2042       C  0.15520627  0.17901447  0.86843708    -0.24240
H2043       H  0.24635814  0.06787987  0.88934608     0.04930
H2044       H  0.25239114  0.08797581  0.92474551     0.08160
H2045       H  0.27340913  0.09891391  0.89091812     0.08160
H2046       H  0.13252291  0.16854247  0.87303472     0.08140
H2047       H  0.15619116  0.18696828  0.84435140     0.08140
H2048       H  0.15737966  0.19967087  0.88318423     0.04920
C2049       C  0.24716584  0.12647991  0.75769476    -0.20880
C2050       C  0.23002623  0.10404159  0.74243995    -0.07450
C2051       C  0.24530647  0.07728621  0.73198707     0.13420
C2052       C  0.27650843  0.07261515  0.73996014    -0.20940
C2053       C  0.29273225  0.09421916  0.75768520    -0.07460
C2054       C  0.27760051  0.12184065  0.76619263     0.13410
C2055       C  0.29217516  0.14622312  0.78613987    -0.24290
H2056       H  0.23593956  0.14744497  0.76491258     0.14690
H2057       H  0.28820187  0.05203971  0.73244831     0.14720
C2058       C  0.22883036  0.05320929  0.71352015    -0.24240
H2059       H  0.27595105  0.16499315  0.79184018     0.04930
H2060       H  0.31174385  0.15719974  0.77440271     0.08160
H2061       H  0.29938127  0.13593622  0.80816726     0.08160
H2062       H  0.21945378  0.06357310  0.69221537     0.08140
H2063       H  0.20991379  0.04322837  0.72702496     0.08140
H2064       H  0.24440371  0.03420647  0.70688907     0.04920
C2065       C  0.21886994  0.00718689  0.83999596    -0.20880
C2066       C  0.20742812  0.97842078  0.84810326    -0.07450
C2067       C  0.18220305  0.96612426  0.83157632     0.13420
C2068       C  0.16588870  0.98486239  0.81133082    -0.20940
C2069       C  0.17615511  0.01428412  0.80459419    -0.07460
C2070       C  0.20412811  0.02480826  0.81739649     0.13410
C2071       C  0.21846972  0.05438382  0.80731535    -0.24290
H2072       H  0.23905274  0.01600274  0.85161295     0.14690
H2073       H  0.14516150  0.97633699  0.80046230     0.14720
C2074       C  0.17242912  0.93322071  0.83354956    -0.24240
H2075       H  0.23961539  0.05976529  0.82054756     0.04930
H2076       H  0.20230177  0.07373243  0.80979179     0.08160
H2077       H  0.22475925  0.05210751  0.78297108     0.08160
H2078       H  0.18826518  0.91941836  0.84744946     0.08140
H2079       H  0.17246048  0.92297909  0.81023404     0.08140
H2080       H  0.14890912  0.93168523  0.84278873     0.04920
C2081       C  0.09628223  0.18305829  0.69860091    -0.20880
C2082       C  0.09590399  0.15136011  0.69241244    -0.07450
C2083       C  0.07490069  0.14013057  0.67021412     0.13420
C2084       C  0.05448084  0.16062862  0.65587922    -0.20940
C2085       C  0.05388383  0.19205681  0.66327212    -0.07460
C2086       C  0.07551422  0.20341841  0.68472928     0.13410
C2087       C  0.07710382  0.23686889  0.69335272    -0.24290
H2088       H  0.11221414  0.19202110  0.71549110     0.14690
H2089       H  0.03805049  0.15170926  0.63943559     0.14720
C2090       C  0.07368210  0.10677265  0.66122589    -0.24240
H2091       H  0.09667338  0.24175239  0.70899245     0.04930
H2092       H  0.05592894  0.24379829  0.70550342     0.08160
H2093       H  0.08007205  0.25102596  0.67245655     0.08160
H2094       H  0.06627261  0.09262026  0.68089739     0.08140
H2095       H  0.09659442  0.09911982  0.65335649     0.08140
H2096       H  0.05709361  0.10263259  0.64227186     0.04920
C2097       C  0.99821250  0.03040772  0.72766302    -0.20880
C2098       C  0.98452238  0.05825616  0.71872814    -0.07450
C2099       C  0.00138884  0.08588894  0.72205560     0.13420
C2100       C  0.03070420  0.08505069  0.73482769    -0.20940
C2101       C  0.04443462  0.05750441  0.74359494    -0.07460
C2102       C  0.02838583  0.02970434  0.73964443     0.13410
C2103       C  0.04273347  0.99971368  0.74877983    -0.24290
H2104       H  0.98540343  0.00929055  0.72512632     0.14690
H2105       H  0.04326381  0.10629690  0.73795102     0.14720
C2106       C  0.98852361  0.11678987  0.71321532    -0.24240
H2107       H  0.02700069  0.98016580  0.74448549     0.04930
H2108       H  0.04858997  0.00013115  0.77356650     0.08160
H2109       H  0.06393086  0.99588890  0.73535526     0.08160
H2110       H  0.96622902  0.12046793  0.72468393     0.08140
H2111       H  0.98557195  0.11806648  0.68798769     0.08140
H2112       H  0.00394405  0.13590292  0.72000076     0.04920
C2113       C  0.06541184  0.16597823  0.85246644    -0.20880
C2114       C  0.07268327  0.17249251  0.82185472    -0.07450
C2115       C  0.06512724  0.20179940  0.80998410     0.13420
C2116       C  0.05030672  0.22323907  0.82903475    -0.20940
C2117       C  0.04270224  0.21638936  0.85954459    -0.07460
C2118       C  0.05091743  0.18715620  0.87144759     0.13410
C2119       C  0.04443814  0.17714957  0.90396618    -0.24290
H2120       H  0.07134299  0.14387473  0.86209943     0.14690
H2121       H  0.04393908  0.24524029  0.81979074     0.14720
C2122       C  0.07197898  0.21071722  0.77737835    -0.24240
H2123       H  0.05392077  0.15407581  0.90912248     0.04930
H2124       H  0.01935478  0.17572759  0.90775822     0.08160
H2125       H  0.05516307  0.19336477  0.92043971     0.08160
H2126       H  0.06080505  0.19436774  0.76133086     0.08140
H2127       H  0.09710755  0.21082359  0.77362347     0.08140
H2128       H  0.06329587  0.23402043  0.77186976     0.04920
C2129       C  0.91012522  0.37634022  0.31158331    -0.20880
C2130       C  0.93024071  0.38725284  0.33419167    -0.07450
C2131       C  0.94051976  0.41801208  0.33237949     0.13420
C2132       C  0.92984783  0.43681482  0.30819431    -0.20940
C2133       C  0.90822098  0.42617929  0.28654624    -0.07460
C2134       C  0.89859437  0.39505404  0.28831559     0.13410
C2135       C  0.87617408  0.38053627  0.26608911    -0.24290
H2136       H  0.90271685  0.35263661  0.31248222     0.14690
H2137       H  0.93762501  0.46036322  0.30701314     0.14720
C2138       C  0.96123229  0.43243734  0.35601259    -0.24240
H2139       H  0.87260607  0.35577667  0.27076773     0.04930
H2140       H  0.88494303  0.38221129  0.24240702     0.08160
H2141       H  0.85338868  0.39168551  0.26794784     0.08160
H2142       H  0.98332332  0.43879480  0.34525852     0.08140
H2143       H  0.96593067  0.41739782  0.37579266     0.08140
H2144       H  0.95022576  0.45346786  0.36517697     0.04920
C2145       C  0.92765237  0.27697592  0.27583640    -0.20880
C2146       C  0.95411795  0.27295713  0.29356952    -0.07450
C2147       C  0.98279106  0.27196067  0.27852919     0.13420
C2148       C  0.98451421  0.27963184  0.24718895    -0.20940
C2149       C  0.95809868  0.28667145  0.23001875    -0.07460
C2150       C  0.92898850  0.28318861  0.24439544     0.13410
C2151       C  0.89881427  0.28684095  0.22763073    -0.24290
H2152       H  0.90557801  0.27662235  0.28711859     0.14690
H2153       H  0.00669377  0.28057199  0.23619158     0.14720
C2154       C  0.01170470  0.26382513  0.29535355    -0.24240
H2155       H  0.87886770  0.28314959  0.24288392     0.04930
H2156       H  0.89706612  0.26958409  0.20899086     0.08160
H2157       H  0.89671380  0.31037734  0.21825467     0.08160
H2158       H  0.00957883  0.24067674  0.30560178     0.08140
H2159       H  0.01569678  0.28077256  0.31347652     0.08140
H2160       H  0.03198115  0.26388255  0.28007939     0.04920
C2161       C  0.05210927  0.39818788  0.34156712    -0.20880
C2162       C  0.06772971  0.38808695  0.31536743    -0.07450
C2163       C  0.06875257  0.35628178  0.30904531     0.13420
C2164       C  0.05393617  0.33584163  0.32904325    -0.20940
C2165       C  0.03949507  0.34619324  0.35589268    -0.07460
C2166       C  0.04032123  0.37792680  0.36297177     0.13410
C2167       C  0.03073490  0.39124476  0.39354457    -0.24290
H2168       H  0.05101001  0.42245834  0.34676679     0.14690
H2169       H  0.05475306  0.31156932  0.32428500     0.14720
C2170       C  0.08589189  0.34355567  0.28204279    -0.24240
H2171       H  0.03484384  0.41632690  0.39496340     0.04930
H2172       H  0.04435858  0.38046986  0.41221072     0.08160
H2173       H  0.00608396  0.38781203  0.39779882     0.08160
H2174       H  0.11061329  0.34917354  0.28422572     0.08140
H2175       H  0.07642716  0.35336271  0.26051641     0.08140
H2176       H  0.08387335  0.31822478  0.28055095     0.04920
C2177       C  0.87519344  0.22023251  0.42059948    -0.20880
C2178       C  0.90645603  0.22431396  0.42818065    -0.07450
C2179       C  0.91699839  0.21329222  0.45699644     0.13420
C2180       C  0.89635501  0.19931274  0.47705204    -0.20940
C2181       C  0.86517668  0.19646562  0.46987649    -0.07460
C2182       C  0.85445000  0.20670414  0.44114324     0.13410
C2183       C  0.82139100  0.20292005  0.43187801    -0.24290
H2184       H  0.86661210  0.22841954  0.39874761     0.14690
H2185       H  0.90452103  0.19128733  0.49915472     0.14720
C2186       C  0.94960813  0.21676047  0.46763647    -0.24240
H2187       H  0.81711884  0.21110042  0.40814117     0.04930
H2188       H  0.80650592  0.21633195  0.44746906     0.08160
H2189       H  0.81496481  0.17832758  0.43297203     0.08160
H2190       H  0.95554717  0.24142188  0.46883705     0.08140
H2191       H  0.96484141  0.20436344  0.45160396     0.08140
H2192       H  0.95349466  0.20702029  0.49085294     0.04920
C2193       C  0.99912663  0.30527765  0.50745617    -0.20880
C2194       C  0.00452775  0.28499039  0.48318910    -0.07450
C2195       C  0.01603828  0.25531892  0.49016610     0.13420
C2196       C  0.01561915  0.24506783  0.52080770    -0.20940
C2197       C  0.00647999  0.26447284  0.54476538    -0.07460
C2198       C  0.00037886  0.29563103  0.53800783     0.13410
C2199       C  0.99143725  0.31834314  0.56209750    -0.24290
H2200       H  0.99192086  0.32854332  0.50247537     0.14690
H2201       H  0.02171813  0.22154887  0.52602981     0.14720
C2202       C  0.02862504  0.23428194  0.46587106    -0.24240
H2203       H  0.99131520  0.34219364  0.55320977     0.04930
H2204       H  0.00783023  0.31760912  0.58160570     0.08160
H2205       H  0.96776936  0.31309609  0.56914336     0.08160
H2206       H  0.04827657  0.24554647  0.45444633     0.08140
H2207       H  0.01097030  0.22870971  0.44848672     0.08140
H2208       H  0.03695491  0.21233794  0.47576982     0.04920
C2209       C  0.40616068  0.41369123  0.15844853    -0.20880
C2210       C  0.43242471  0.39591826  0.16388791    -0.07450
C2211       C  0.45061991  0.40189047  0.19002250     0.13420
C2212       C  0.44033938  0.42344212  0.21156505    -0.20940
C2213       C  0.41255874  0.43940867  0.20741851    -0.07460
C2214       C  0.39631604  0.43587424  0.17947016     0.13410
C2215       C  0.36776587  0.45353438  0.17143030    -0.24290
H2216       H  0.39259503  0.40954404  0.13798747     0.14690
H2217       H  0.45311288  0.42649794  0.23274747     0.14720
C2218       C  0.47956700  0.38410017  0.19638778    -0.24240
H2219       H  0.37064799  0.46449168  0.14866914     0.04930
H2220       H  0.36272645  0.47205785  0.18779415     0.08160
H2221       H  0.34789833  0.43769711  0.17028655     0.08160
H2222       H  0.49632387  0.38823760  0.17781565     0.08140
H2223       H  0.47438536  0.35922764  0.19769097     0.08140
H2224       H  0.49042755  0.39108227  0.21838933     0.04920
C2225       C  0.27418825  0.47817938  0.28814355    -0.20880
C2226       C  0.29119331  0.48536582  0.26219871    -0.07450
C2227       C  0.27681735  0.48504254  0.23312253     0.13420
C2228       C  0.24572541  0.47664518  0.23065671    -0.20940
C2229       C  0.22920463  0.46720866  0.25651888    -0.07460
C2230       C  0.24365874  0.46877418  0.28580794     0.13410
C2231       C  0.22740927  0.46056807  0.31500935    -0.24290
H2232       H  0.28552442  0.47804441  0.31033270     0.14690
H2233       H  0.23472930  0.47611489  0.20832946     0.14720
C2234       C  0.29457971  0.49232171  0.20470111    -0.24240
H2235       H  0.24135002  0.46586297  0.33573451     0.04930
H2236       H  0.22238358  0.43566207  0.31542683     0.08160
H2237       H  0.20591536  0.47387421  0.31651016     0.08160
H2238       H  0.31288621  0.47503067  0.20189633     0.08140
H2239       H  0.30488100  0.51549132  0.20670437     0.08140
H2240       H  0.27984309  0.49176432  0.18386850     0.04920
C2241       C  0.39105923  0.25559776  0.39091637    -0.20880
C2242       C  0.42189480  0.24693677  0.38947195    -0.07450
C2243       C  0.43096815  0.21825625  0.40153987     0.13420
C2244       C  0.40834192  0.19816820  0.41283412    -0.20940
C2245       C  0.37722276  0.20662119  0.41281512    -0.07460
C2246       C  0.36890177  0.23638547  0.40311006     0.13410
C2247       C  0.33701443  0.24916064  0.40563503    -0.24290
H2248       H  0.38398503  0.27789940  0.38257995     0.14690
H2249       H  0.41475148  0.17537265  0.42036449     0.14720
C2250       C  0.46393670  0.20821447  0.40104354    -0.24240
H2251       H  0.33767927  0.27150370  0.41786174     0.04930
H2252       H  0.32209956  0.23419260  0.41904535     0.08160
H2253       H  0.32699933  0.25263299  0.38245394     0.08160
H2254       H  0.47798866  0.22396692  0.41531023     0.08140
H2255       H  0.47250607  0.20839976  0.37713536     0.08140
H2256       H  0.46679624  0.18467987  0.41030851     0.04920
C2257       C  0.43625244  0.28192906  0.26096333    -0.20880
C2258       C  0.46659448  0.28551071  0.27108253    -0.07450
C2259       C  0.49084475  0.27821415  0.25115604     0.13420
C2260       C  0.48409050  0.27153362  0.22023700    -0.20940
C2261       C  0.45363475  0.27166919  0.20943138    -0.07460
C2262       C  0.42947205  0.27461798  0.23054279     0.13410
C2263       C  0.39627524  0.27125300  0.22142142    -0.24290
H2264       H  0.41755363  0.28619364  0.27668863     0.14690
H2265       H  0.50264909  0.26880210  0.20405760     0.14720
C2266       C  0.52357546  0.27943371  0.26196274    -0.24240
H2267       H  0.38536257  0.25358417  0.23603241     0.04930
H2268       H  0.39332733  0.26385426  0.19726119     0.08160
H2269       H  0.38417927  0.29339661  0.22473084     0.08160
H2270       H  0.52723358  0.26229585  0.28040923     0.08140
H2271       H  0.52868467  0.30254607  0.27111469     0.08140
H2272       H  0.53983498  0.27441457  0.24311774     0.04920
C2273       C  0.20978279  0.38838898  0.38532740    -0.20880
C2274       C  0.22317005  0.41099319  0.40343963    -0.07450
C2275       C  0.20925717  0.43989648  0.40612695     0.13420
C2276       C  0.18517535  0.44747405  0.38602553    -0.20940
C2277       C  0.17464163  0.42615237  0.36415352    -0.07460
C2278       C  0.18503239  0.39519112  0.36618305     0.13410
C2279       C  0.17135104  0.36904659  0.34792867    -0.24290
H2280       H  0.21990249  0.36565927  0.38492435     0.14690
H2281       H  0.17571611  0.47040888  0.38641243     0.14720
C2282       C  0.22031215  0.46246770  0.42977069    -0.24240
H2283       H  0.18024180  0.34647671  0.35572875     0.04930
H2284       H  0.17732041  0.37112703  0.32334559     0.08160
H2285       H  0.14608334  0.36866474  0.35085738     0.08160
H2286       H  0.24421387  0.46945674  0.42475016     0.08140
H2287       H  0.21952807  0.45160251  0.45273311     0.08140
H2288       H  0.20554862  0.48315439  0.43066910     0.04920
C2289       C  0.26327874  0.29155309  0.41200381    -0.20880
C2290       C  0.27100985  0.30306209  0.44134534    -0.07450
C2291       C  0.26372710  0.28500548  0.46724765     0.13420
C2292       C  0.25312110  0.25475266  0.46269498    -0.20940
C2293       C  0.25151178  0.24204533  0.43315749    -0.07460
C2294       C  0.25352706  0.26150800  0.40769986     0.13410
C2295       C  0.24685301  0.25064731  0.37553874    -0.24290
H2296       H  0.26614870  0.30548633  0.39168861     0.14690
H2297       H  0.24936805  0.24000028  0.48227037     0.14720
C2298       C  0.26809991  0.29674209  0.49942118    -0.24240
H2299       H  0.22904170  0.26555503  0.36501708     0.04930
H2300       H  0.23807680  0.22679031  0.37496273     0.08160
H2301       H  0.26799626  0.25189962  0.36158460     0.08160
H2302       H  0.25428699  0.31784958  0.50277088     0.08140
H2303       H  0.29267986  0.30175983  0.50370530     0.08140
H2304       H  0.26070030  0.27964902  0.51669729     0.04920
C2305       C  0.16443828  0.72030971  0.41884017    -0.20880
C2306       C  0.16095851  0.69141457  0.40560386    -0.07450
C2307       C  0.13817008  0.68645214  0.38307121     0.13420
C2308       C  0.11989518  0.71121031  0.37341200    -0.20940
C2309       C  0.12517097  0.74077228  0.38487738    -0.07460
C2310       C  0.14749233  0.74529591  0.40811931     0.13410
C2311       C  0.15532319  0.77660746  0.42023360    -0.24290
H2312       H  0.18245580  0.72387817  0.43571694     0.14690
H2313       H  0.10259856  0.70783207  0.35580904     0.14720
C2314       C  0.13360608  0.65524307  0.36900155    -0.24240
H2315       H  0.17123596  0.77544872  0.44016896     0.04930
H2316       H  0.13438307  0.78890765  0.42765619     0.08160
H2317       H  0.16716512  0.78949955  0.40197683     0.08160
H2318       H  0.12826397  0.63838559  0.38724365     0.08140
H2319       H  0.15471891  0.64791473  0.35695838     0.08140
H2320       H  0.11444940  0.65520409  0.35213720     0.04920
C2321       C  0.27506947  0.75223967  0.46390800    -0.20880
C2322       C  0.27630381  0.74018668  0.43403334    -0.07450
C2323       C  0.27323880  0.76015701  0.40890509     0.13420
C2324       C  0.26608175  0.79081563  0.41408548    -0.20940
C2325       C  0.26268317  0.80300117  0.44387425    -0.07460
C2326       C  0.26830684  0.78349147  0.46921962     0.13410
C2327       C  0.26687394  0.79510747  0.50165725    -0.24290
H2328       H  0.27769747  0.73683189  0.48310317     0.14690
H2329       H  0.26276583  0.80518938  0.39409569     0.14720
C2330       C  0.27706113  0.74984393  0.37609659    -0.24240
H2331       H  0.27251245  0.77681370  0.51846109     0.04930
H2332       H  0.24342449  0.80348541  0.50671285     0.08160
H2333       H  0.28360070  0.81401351  0.50487673     0.08160
H2334       H  0.25490687  0.75214297  0.36365506     0.08140
H2335       H  0.28518782  0.72584962  0.37409812     0.08140
H2336       H  0.29439110  0.76448421  0.36471645     0.04920
C2337       C  0.17547613  0.67524504  0.51144521    -0.20880
C2338       C  0.20711348  0.67775727  0.51658014    -0.07450
C2339       C  0.21800043  0.69938248  0.53820584     0.13420
C2340       C  0.19686555  0.71805092  0.55378808    -0.20940
C2341       C  0.16514420  0.71578468  0.54827412    -0.07460
C2342       C  0.15438656  0.69387813  0.52667696     0.13410
C2343       C  0.12076996  0.68903643  0.51981287    -0.24290
H2344       H  0.16704966  0.65876242  0.49484111     0.14690
H2345       H  0.20518581  0.73431871  0.57066893     0.14720
C2346       C  0.25154207  0.70193369  0.54609511    -0.24240
H2347       H  0.11693467  0.67026286  0.50301554     0.04930
H2348       H  0.11075851  0.71016367  0.50974497     0.08160
H2349       H  0.10847999  0.68275330  0.54110829     0.08160
H2350       H  0.26468030  0.70954652  0.52591229     0.08140
H2351       H  0.26032904  0.67934673  0.55388006     0.08140
H2352       H  0.25569281  0.71882549  0.56472051     0.04920
C2353       C  0.31579518  0.58213449  0.37529008    -0.20880
C2354       C  0.32883875  0.61030293  0.38322618    -0.07450
C2355       C  0.35768118  0.61848757  0.37128972     0.13420
C2356       C  0.37332500  0.59758872  0.35218004    -0.20940
C2357       C  0.36027235  0.56910721  0.34466533    -0.07460
C2358       C  0.33091698  0.56162522  0.35596763     0.13410
C2359       C  0.31529571  0.53196187  0.34758749    -0.24290
H2360       H  0.29345069  0.57617445  0.38424499     0.14690
H2361       H  0.39600832  0.60307006  0.34385753     0.14720
C2362       C  0.37214330  0.64867968  0.37948932    -0.24240
H2363       H  0.29214728  0.53015884  0.35785189     0.04930
H2364       H  0.32902928  0.51229773  0.35592496     0.08160
H2365       H  0.31259350  0.53052327  0.32235751     0.08160
H2366       H  0.37523865  0.65021812  0.40472246     0.08140
H2367       H  0.35716440  0.66774125  0.37167074     0.08140
H2368       H  0.39490986  0.65139109  0.36858841     0.04920
C2369       C  0.30420198  0.54637100  0.47694452    -0.20880
C2370       C  0.27250823  0.55106774  0.47847805    -0.07450
C2371       C  0.25321270  0.52598749  0.48500091     0.13420
C2372       C  0.26589767  0.49648778  0.48729348    -0.20940
C2373       C  0.29724983  0.49105850  0.48208476    -0.07460
C2374       C  0.31691264  0.51678952  0.47826960     0.13410
C2375       C  0.35108591  0.51373150  0.47418743    -0.24290
H2376       H  0.31894989  0.56580780  0.47242251     0.14690
H2377       H  0.25079274  0.47732661  0.49158908     0.14720
C2378       C  0.21923865  0.53012892  0.48952042    -0.24240
H2379       H  0.36253187  0.53640881  0.47284286     0.04930
H2380       H  0.35615570  0.50143608  0.45252179     0.08160
H2381       H  0.36121710  0.50131711  0.49400324     0.08160
H2382       H  0.20819479  0.53798031  0.46797900     0.08140
H2383       H  0.21513621  0.54721404  0.50792660     0.08140
H2384       H  0.20798265  0.50835469  0.49624852     0.04920
C2385       C  0.19877031  0.59375026  0.32619540    -0.20880
C2386       C  0.20952871  0.58094886  0.35378141    -0.07450
C2387       C  0.20447625  0.54982781  0.35992353     0.13420
C2388       C  0.18613217  0.53278256  0.33994481    -0.20940
C2389       C  0.17384803  0.54571441  0.31320054    -0.07460
C2390       C  0.18114899  0.57619811  0.30550837     0.13410
C2391       C  0.16921010  0.59044655  0.27643075    -0.24290
H2392       H  0.20282356  0.61780882  0.32161249     0.14690
H2393       H  0.18087574  0.50936978  0.34567655     0.14720
C2394       C  0.21844217  0.53463075  0.38759857    -0.24240
H2395       H  0.17664742  0.61467148  0.27419283     0.04930
H2396       H  0.14377884  0.58988319  0.27623583     0.08160
H2397       H  0.17792828  0.57749442  0.25637302     0.08160
H2398       H  0.20783326  0.54358005  0.40884240     0.08140
H2399       H  0.24349190  0.53895301  0.38829476     0.08140
H2400       H  0.21516668  0.50953974  0.38658267     0.04920
C2401       C  0.38674094  0.15785511  0.70067205    -0.20880
C2402       C  0.40687650  0.13386018  0.70699565    -0.07450
C2403       C  0.43524678  0.13219088  0.69194868     0.13420
C2404       C  0.44321893  0.15537407  0.67121303    -0.20940
C2405       C  0.42363718  0.18048046  0.66587080    -0.07460
C2406       C  0.39471221  0.18153362  0.68089781     0.13410
C2407       C  0.37238220  0.20795908  0.67808307    -0.24290
H2408       H  0.36529098  0.15908507  0.71309190     0.14690
H2409       H  0.46509633  0.15414001  0.65965888     0.14720
C2410       C  0.45713129  0.10630903  0.69809919    -0.24240
H2411       H  0.35211609  0.20505151  0.69308206     0.04930
H2412       H  0.36350841  0.20972097  0.65427972     0.08160
H2413       H  0.38372020  0.22965655  0.68508389     0.08160
H2414       H  0.44612722  0.08464222  0.69078008     0.08140
H2415       H  0.46291047  0.10523667  0.72288847     0.08140
H2416       H  0.47877820  0.10890142  0.68510233     0.04920
C2417       C  0.43233814  0.28725944  0.72524302    -0.20880
C2418       C  0.45730339  0.29660462  0.70742105    -0.07450
C2419       C  0.48609360  0.30055713  0.72224798     0.13420
C2420       C  0.48962806  0.29166730  0.75333901    -0.20940
C2421       C  0.46534848  0.27816508  0.76955238    -0.07460
C2422       C  0.43598354  0.27707290  0.75539912     0.13410
C2423       C  0.40815252  0.26402333  0.77117332    -0.24290
H2424       H  0.40994206  0.28523900  0.71453740     0.14690
H2425       H  0.51185639  0.29351979  0.76437993     0.14720
C2426       C  0.51335385  0.31291146  0.70538939    -0.24240
H2427       H  0.38680536  0.26791228  0.75773422     0.04930
H2428       H  0.40502531  0.27483366  0.79388874     0.08160
H2429       H  0.41069906  0.23887921  0.77393939     0.08160
H2430       H  0.50782420  0.33584293  0.69583106     0.08140
H2431       H  0.51977939  0.29713874  0.68664939     0.08140
H2432       H  0.53360148  0.31538034  0.72072826     0.04920
C2433       C  0.53667337  0.22007987  0.67991432    -0.20880
C2434       C  0.54431473  0.22579502  0.64914304    -0.07450
C2435       C  0.57069825  0.21206325  0.63663425     0.13420
C2436       C  0.58770396  0.19148805  0.65453370    -0.20940
C2437       C  0.57892184  0.18409916  0.68453274    -0.07460
C2438       C  0.55352469  0.19900039  0.69769528     0.13410
C2439       C  0.54309055  0.19121600  0.72954138    -0.24290
H2440       H  0.51627673  0.23057696  0.68939621     0.14690
H2441       H  0.60749679  0.18021719  0.64467098     0.14720
C2442       C  0.58101231  0.21903424  0.60448246    -0.24240
H2443       H  0.52255239  0.20467296  0.73620825     0.04930
H2444       H  0.56168372  0.19629866  0.74614071     0.08160
H2445       H  0.53728346  0.16648225  0.73085382     0.08160
H2446       H  0.58438795  0.24411284  0.60188278     0.08140
H2447       H  0.56368688  0.21103724  0.58760725     0.08140
H2448       H  0.60302186  0.20747391  0.59905219     0.04920
C2449       C  0.41646809  0.33759615  0.53809719    -0.20880
C2450       C  0.41204555  0.34445955  0.56912806    -0.07450
C2451       C  0.38869968  0.36534534  0.57743956     0.13420
C2452       C  0.37028102  0.37869799  0.55438375    -0.20940
C2453       C  0.37427631  0.37110658  0.52337208    -0.07460
C2454       C  0.39731533  0.34962863  0.51528405     0.13410
C2455       C  0.40128625  0.33712488  0.48324354    -0.24290
H2456       H  0.43378268  0.32096147  0.53170350     0.14690
H2457       H  0.35284438  0.39526371  0.56054967     0.14720
C2458       C  0.38376027  0.37424862  0.61038514    -0.24240
H2459       H  0.40070728  0.31168127  0.48390781     0.04930
H2460       H  0.42375228  0.34446322  0.47398598     0.08160
H2461       H  0.38287213  0.34417629  0.46723674     0.08160
H2462       H  0.40536961  0.38353094  0.62021325     0.08140
H2463       H  0.37642578  0.35404870  0.62386135     0.08140
H2464       H  0.36573575  0.39209186  0.61261298     0.04920
C2465       C  0.51907350  0.30004481  0.51012987    -0.20880
C2466       C  0.49432725  0.28067846  0.51747638    -0.07450
C2467       C  0.47166980  0.27484557  0.49450650     0.13420
C2468       C  0.47414469  0.28889290  0.46578526    -0.20940
C2469       C  0.49847792  0.30837512  0.45881635    -0.07460
C2470       C  0.52144515  0.31382587  0.48097342     0.13410
C2471       C  0.54781809  0.33482376  0.47408462    -0.24290
H2472       H  0.53638579  0.30480707  0.52737718     0.14690
H2473       H  0.45648554  0.28508297  0.44860183     0.14720
C2474       C  0.44386553  0.25500616  0.49993798    -0.24240
H2475       H  0.56372945  0.33688900  0.49393223     0.04930
H2476       H  0.53902692  0.35803667  0.46840252     0.08160
H2477       H  0.56089287  0.32576487  0.45428657     0.08160
H2478       H  0.43037928  0.26421628  0.51936740     0.08140
H2479       H  0.45103856  0.23106382  0.50469714     0.08140
H2480       H  0.42835696  0.25425532  0.47966290     0.04920
C2481       C  0.36119391  0.23130344  0.53393196    -0.20880
C2482       C  0.37713274  0.21530455  0.55672963    -0.07450
C2483       C  0.36864445  0.18462487  0.56349453     0.13420
C2484       C  0.34555302  0.17047413  0.54618733    -0.20940
C2485       C  0.33069353  0.18587396  0.52226632    -0.07460
C2486       C  0.33840279  0.21681276  0.51636640     0.13410
C2487       C  0.32365837  0.23422025  0.49076200    -0.24290
H2488       H  0.36751797  0.25479896  0.52895988     0.14690
H2489       H  0.33977207  0.14673206  0.55062296     0.14720
C2490       C  0.38338683  0.16647004  0.58905232    -0.24240
H2491       H  0.33319483  0.25766604  0.48820693     0.04930
H2492       H  0.29912228  0.23617706  0.49600287     0.08160
H2493       H  0.32689146  0.22171284  0.46897506     0.08160
H2494       H  0.38089200  0.17900339  0.61095881     0.08140
H2495       H  0.40795085  0.16230561  0.58419923     0.08140
H2496       H  0.37246986  0.14368821  0.59196607     0.04920
C2497       C  0.68218180  0.44035470  0.11141284    -0.20880
C2498       C  0.68878189  0.43520350  0.14263244    -0.07450
C2499       C  0.71732872  0.42202661  0.15088877     0.13420
C2500       C  0.73861445  0.41586687  0.12825987    -0.20940
C2501       C  0.73175151  0.41909634  0.09703843    -0.07460
C2502       C  0.70295563  0.43130479  0.08832633     0.13410
C2503       C  0.69315513  0.43271205  0.05527288    -0.24290
H2504       H  0.65998031  0.44958814  0.10503445     0.14690
H2505       H  0.76085173  0.40713846  0.13525094     0.14720
C2506       C  0.72631561  0.41394517  0.18333889    -0.24240
H2507       H  0.66949393  0.44181064  0.05274389     0.04930
H2508       H  0.69376375  0.40936391  0.04515486     0.08160
H2509       H  0.70862062  0.44781261  0.04226875     0.08160
H2510       H  0.71012164  0.39720790  0.19328663     0.08140
H2511       H  0.72753211  0.43487173  0.19723408     0.08140
H2512       H  0.74938112  0.40322917  0.18476547     0.04920
C2513       C  0.74956542  0.47190187  0.27407911    -0.20880
C2514       C  0.72852310  0.47748586  0.25022402    -0.07450
C2515       C  0.73940436  0.49035271  0.22242873     0.13420
C2516       C  0.77069532  0.49531121  0.21853306    -0.20940
C2517       C  0.79193569  0.48674237  0.24091409    -0.07460
C2518       C  0.78135903  0.47606279  0.26957841     0.13410
C2519       C  0.80360143  0.46699802  0.29445486    -0.24290
H2520       H  0.74141248  0.46208724  0.29532030     0.14690
H2521       H  0.77885351  0.50361158  0.19659733     0.14720
C2522       C  0.71931004  0.49745488  0.19521767    -0.24240
H2523       H  0.79159237  0.45873075  0.31522939     0.04930
H2524       H  0.81779907  0.48706706  0.30104725     0.08160
H2525       H  0.81875515  0.44832342  0.28617725     0.08160
H2526       H  0.72075607  0.52224336  0.19007960     0.08140
H2527       H  0.69523685  0.49106761  0.19876191     0.08140
H2528       H  0.72752825  0.48479278  0.17478127     0.04920
C2529       C  0.68034063  0.56851935  0.19426727    -0.20880
C2530       C  0.65925770  0.54789776  0.18101238    -0.07450
C2531       C  0.65734902  0.54598959  0.14842180     0.13420
C2532       C  0.67716542  0.56367542  0.13080775    -0.20940
C2533       C  0.69856805  0.58364631  0.14398351    -0.07460
C2534       C  0.70003263  0.58639141  0.17622073     0.13410
C2535       C  0.72302643  0.60698465  0.19180749    -0.24290
H2536       H  0.68207382  0.57000459  0.21901395     0.14690
H2537       H  0.67544091  0.56204880  0.10603561     0.14720
C2538       C  0.63600604  0.52561287  0.13000608    -0.24240
H2539       H  0.72232055  0.60460756  0.21713110     0.04930
H2540       H  0.71808121  0.63129953  0.18630177     0.08160
H2541       H  0.74650850  0.60099168  0.18415037     0.08160
H2542       H  0.61968423  0.51162709  0.14284767     0.08140
H2543       H  0.64985076  0.50962269  0.11588128     0.08140
H2544       H  0.62207374  0.54009694  0.11429908     0.04920
C2545       C  0.60307911  0.38324796  0.30865805    -0.20880
C2546       C  0.60176850  0.41537757  0.31157589    -0.07450
C2547       C  0.58039288  0.42811774  0.33240505     0.13420
C2548       C  0.55976296  0.40870370  0.34764577    -0.20940
C2549       C  0.55936246  0.37681934  0.34261575    -0.07460
C2550       C  0.58227427  0.36388991  0.32368023     0.13410
C2551       C  0.58522089  0.32978548  0.31901948    -0.24290
H2552       H  0.61956427  0.37307533  0.29319916     0.14690
H2553       H  0.54275819  0.41885563  0.36255149     0.14720
C2554       C  0.57862590  0.46208548  0.33859824    -0.24240
H2555       H  0.60573346  0.32379512  0.30529563     0.04930
H2556       H  0.56499603  0.32089725  0.30646679     0.08160
H2557       H  0.58738357  0.31816359  0.34154860     0.08160
H2558       H  0.57038346  0.47440733  0.31791081     0.08140
H2559       H  0.60153028  0.47078566  0.34557068     0.08140
H2560       H  0.56238209  0.46746158  0.35735888     0.04920
C2561       C  0.52805118  0.52879672  0.24964409    -0.20880
C2562       C  0.53896414  0.49851444  0.24783535    -0.07450
C2563       C  0.52125089  0.47432179  0.25974400     0.13420
C2564       C  0.49315693  0.48093867  0.27329860    -0.20940
C2565       C  0.48185472  0.51092679  0.27440309    -0.07460
C2566       C  0.49910831  0.53518207  0.26216735     0.13410
C2567       C  0.48688602  0.56742824  0.26221507    -0.24290
H2568       H  0.54186424  0.54729079  0.24061017     0.14690
H2569       H  0.47927392  0.46233824  0.28199921     0.14720
C2570       C  0.53180486  0.44148190  0.25826949    -0.24240
H2571       H  0.50337885  0.58372163  0.25186213     0.04930
H2572       H  0.48238247  0.57482494  0.28611833     0.08160
H2573       H  0.46520167  0.56846101  0.24881333     0.08160
H2574       H  0.55447463  0.43906689  0.26957935     0.08140
H2575       H  0.53349845  0.43428304  0.23395909     0.08140
H2576       H  0.51560723  0.42570952  0.26983473     0.04920
C2577       C  0.58664943  0.37216401  0.15070086    -0.20880
C2578       C  0.58205227  0.37611041  0.18232449    -0.07450
C2579       C  0.56077450  0.35715106  0.19740285     0.13420
C2580       C  0.54239259  0.33707954  0.17983835    -0.20940
C2581       C  0.54479194  0.33577152  0.14764396    -0.07460
C2582       C  0.56837619  0.35240187  0.13317467     0.13410
C2583       C  0.57445507  0.34968366  0.09926960    -0.24290
H2584       H  0.60392291  0.38578566  0.13927210     0.14690
H2585       H  0.52469630  0.32391646  0.19110056     0.14720
C2586       C  0.55621970  0.35917166  0.23148315    -0.24240
H2587       H  0.59557756  0.36212673  0.09260324     0.04930
H2588       H  0.55528046  0.35968664  0.08582972     0.08160
H2589       H  0.57751418  0.32520929  0.09299088     0.08160
H2590       H  0.55024984  0.38290749  0.23807538     0.08140
H2591       H  0.57756094  0.35222983  0.24359074     0.08140
H2592       H  0.53734809  0.34409368  0.23912514     0.04920
C2593       C  0.64312868  0.62874925  0.82291027    -0.20880
C2594       C  0.62918897  0.63113037  0.79399542    -0.07450
C2595       C  0.60586144  0.65312680  0.78903120     0.13420
C2596       C  0.59901485  0.67407275  0.81231233    -0.20940
C2597       C  0.61447049  0.67304289  0.84047484    -0.07460
C2598       C  0.63589093  0.64952539  0.84637749     0.13410
C2599       C  0.65153616  0.64690323  0.87712367    -0.24290
H2600       H  0.66092369  0.61176356  0.82655433     0.14690
H2601       H  0.58242957  0.69213093  0.80798051     0.14720
C2602       C  0.58869533  0.65583481  0.75907022    -0.24240
H2603       H  0.66722444  0.62686374  0.87807560     0.04930
H2604       H  0.63405926  0.64413837  0.89531142     0.08160
H2605       H  0.66518094  0.66782388  0.88185577     0.08160
H2606       H  0.59355075  0.63648456  0.74338731     0.08140
H2607       H  0.59475226  0.67774112  0.74768170     0.08140
H2608       H  0.56365713  0.65563530  0.76325002     0.04920
C2609       C  0.76119266  0.62904747  0.75048381    -0.20880
C2610       C  0.74970773  0.59901534  0.75083289    -0.07450
C2611       C  0.76845555  0.57514193  0.76226508     0.13420
C2612       C  0.79936142  0.58149535  0.76952288    -0.20940
C2613       C  0.81172730  0.61078515  0.76450942    -0.07460
C2614       C  0.79175767  0.63528646  0.75757521     0.13410
C2615       C  0.80217427  0.66821044  0.75678578    -0.24290
H2616       H  0.74641022  0.64782522  0.74351450     0.14690
H2617       H  0.81450424  0.56298302  0.77630348     0.14720
C2618       C  0.75677271  0.54280542  0.76456495    -0.24240
H2619       H  0.78746356  0.68215627  0.77212099     0.04930
H2620       H  0.80014719  0.67722292  0.73307833     0.08160
H2621       H  0.82613007  0.67109865  0.76489236     0.08160
H2622       H  0.74898346  0.53473147  0.74167349     0.08140
H2623       H  0.73735594  0.54190690  0.78085005     0.08140
H2624       H  0.77482626  0.52686497  0.77293572     0.04920
C2625       C  0.62629944  0.85129899  0.63254986    -0.20880
C2626       C  0.61744544  0.82975272  0.61050337    -0.07450
C2627       C  0.62824123  0.83246573  0.58021475     0.13420
C2628       C  0.64959464  0.85538715  0.57324650    -0.20940
C2629       C  0.66064417  0.87521938  0.59608645    -0.07460
C2630       C  0.64764454  0.87414138  0.62579564     0.13410
C2631       C  0.65603380  0.89672686  0.65067110    -0.24290
H2632       H  0.61760015  0.84921497  0.65568816     0.14690
H2633       H  0.65917166  0.85648023  0.55040423     0.14720
C2634       C  0.61899587  0.80998175  0.55583186    -0.24240
H2635       H  0.64141105  0.89397330  0.67122911     0.04930
H2636       H  0.65276761  0.92040050  0.64208560     0.08160
H2637       H  0.68009059  0.89335341  0.65824819     0.08160
H2638       H  0.59380562  0.81104233  0.55239953     0.08140
H2639       H  0.62585594  0.78652249  0.56289614     0.08140
H2640       H  0.63012793  0.81508746  0.53360965     0.04920
C2641       C  0.60926502  0.79117697  0.73727301    -0.20880
C2642       C  0.58006610  0.78264538  0.72662186    -0.07450
C2643       C  0.55537558  0.78173724  0.74729445     0.13420
C2644       C  0.56105682  0.78709235  0.77867279    -0.20940
C2645       C  0.59094495  0.79265229  0.78957192    -0.07460
C2646       C  0.61504497  0.79602803  0.76850957     0.13410
C2647       C  0.64701807  0.80396721  0.77905425    -0.24290
H2648       H  0.62810657  0.79218272  0.72120935     0.14690
H2649       H  0.54259579  0.78450170  0.79497593     0.14720
C2650       C  0.52371815  0.77295565  0.73664143    -0.24240
H2651       H  0.66287876  0.80669336  0.75943556     0.04930
H2652       H  0.65629472  0.78559859  0.79402421     0.08160
H2653       H  0.64658549  0.82589241  0.79199118     0.08160
H2654       H  0.52416476  0.74966868  0.72635706     0.08140
H2655       H  0.51550935  0.78962294  0.71922106     0.08140
H2656       H  0.50714625  0.77282284  0.75586585     0.04920
C2657       C  0.83820728  0.61218517  0.63508553    -0.20880
C2658       C  0.86350854  0.63132290  0.63963144    -0.07450
C2659       C  0.86707994  0.65763700  0.62107779     0.13420
C2660       C  0.84307727  0.66651898  0.60155821    -0.20940
C2661       C  0.81602439  0.64941991  0.60009857    -0.07460
C2662       C  0.81442173  0.62078212  0.61528512     0.13410
C2663       C  0.78776490  0.59905607  0.61157406    -0.24290
H2664       H  0.83603561  0.59136929  0.64844265     0.14690
H2665       H  0.84473664  0.68789108  0.58901949     0.14720
C2666       C  0.89565717  0.67691516  0.62152822    -0.24240
H2667       H  0.79638885  0.57631135  0.60405799     0.04930
H2668       H  0.77091850  0.60675611  0.59409633     0.08160
H2669       H  0.77585966  0.59635410  0.63382377     0.08160
H2670       H  0.90547584  0.67769460  0.59812751     0.08140
H2671       H  0.91361444  0.66768122  0.63704762     0.08140
H2672       H  0.88984427  0.70062423  0.62865305     0.04920
C2673       C  0.79131681  0.77770681  0.56563475    -0.20880
C2674       C  0.76406961  0.76838199  0.55096149    -0.07450
C2675       C  0.74400473  0.79064732  0.53872007     0.13420
C2676       C  0.75051953  0.82171094  0.54358995    -0.20940
C2677       C  0.77660663  0.83095966  0.56016654    -0.07460
C2678       C  0.79791553  0.80890250  0.57021674     0.13410
C2679       C  0.82655102  0.81822359  0.58716722    -0.24290
H2680       H  0.80674814  0.76046741  0.57480495     0.14690
H2681       H  0.73414501  0.83889387  0.53608267     0.14720
C2682       C  0.71460954  0.78181913  0.52267853    -0.24240
H2683       H  0.84070430  0.79803923  0.59362843     0.04930
H2684       H  0.82042930  0.83075663  0.60842277     0.08160
H2685       H  0.84056362  0.83336183  0.57238508     0.08160
H2686       H  0.70007629  0.76806289  0.53828161     0.08140
H2687       H  0.71983347  0.76816763  0.50189531     0.08140
H2688       H  0.70121923  0.80226061  0.51539434     0.04920
C2689       C  0.36785733  0.63034016  0.88900046    -0.20880
C2690       C  0.35865778  0.62290856  0.85895774    -0.07450
C2691       C  0.32713764  0.62000862  0.85216486     0.13420
C2692       C  0.30563518  0.62742860  0.87451862    -0.20940
C2693       C  0.31464223  0.63810755  0.90345686    -0.07460
C2694       C  0.34600541  0.63801080  0.91150110     0.13410
C2695       C  0.35635493  0.64743101  0.94304786    -0.24290
H2696       H  0.39209036  0.63172875  0.89437336     0.14690
H2697       H  0.28147483  0.62689748  0.86863299     0.14720
C2698       C  0.31578944  0.61110884  0.82081375    -0.24240
H2699       H  0.38168430  0.64636050  0.94543211     0.04930
H2700       H  0.34621432  0.63180883  0.96030302     0.08160
H2701       H  0.34887088  0.67127312  0.94782344     0.08160
H2702       H  0.32755502  0.59001233  0.81281132     0.08140
H2703       H  0.32000017  0.63039436  0.80500830     0.08140
H2704       H  0.29072969  0.60663306  0.82053626     0.04920
C2705       C  0.30297508  0.57478872  0.74086647    -0.20880
C2706       C  0.31409286  0.60493139  0.73905785    -0.07450
C2707       C  0.29328598  0.62962907  0.74116083     0.13420
C2708       C  0.26273929  0.62376292  0.74870151    -0.20940
C2709       C  0.25223092  0.59383691  0.75377706    -0.07460
C2710       C  0.27213161  0.56885679  0.74802192     0.13410
C2711       C  0.26244565  0.53591329  0.75098214    -0.24290
H2712       H  0.31889105  0.55576699  0.73908627     0.14690
H2713       H  0.24711992  0.64285008  0.75182380     0.14720
C2714       C  0.30330777  0.66228598  0.73602774    -0.24240
H2715       H  0.26650090  0.52382331  0.72897088     0.04930
H2716       H  0.23796611  0.53320500  0.75674188     0.08160
H2717       H  0.27628692  0.52472127  0.76920336     0.08160
H2718       H  0.31435903  0.66424370  0.71325889     0.08140
H2719       H  0.31963326  0.66968365  0.75411087     0.08140
H2720       H  0.28358420  0.67838692  0.73650024     0.04920
C2721       C  0.35104736  0.50663500  0.80489323    -0.20880
C2722       C  0.37961147  0.51919715  0.81324293    -0.07450
C2723       C  0.39141967  0.51299325  0.84308690     0.13420
C2724       C  0.37399046  0.49593233  0.86352097    -0.20940
C2725       C  0.34570925  0.48294711  0.85534939    -0.07460
C2726       C  0.33427968  0.48799319  0.82525039     0.13410
C2727       C  0.30503432  0.47346409  0.81401657    -0.24290
H2728       H  0.34190953  0.51113734  0.78219448     0.14690
H2729       H  0.38320951  0.49228014  0.88632919     0.14720
C2730       C  0.42244426  0.52380546  0.85443604    -0.24240
H2731       H  0.30027652  0.47907598  0.78965308     0.04930
H2732       H  0.28547475  0.48180740  0.82775055     0.08160
H2733       H  0.30676933  0.44814243  0.81575930     0.08160
H2734       H  0.42340819  0.54916451  0.85490400     0.08140
H2735       H  0.44080208  0.51439307  0.83963512     0.08140
H2736       H  0.42757192  0.51597373  0.87813207     0.04920
C2737       C  0.43942742  0.67009831  0.66709493    -0.20880
C2738       C  0.44910721  0.65479796  0.69379233    -0.07450
C2739       C  0.47975614  0.65869880  0.70414943     0.13420
C2740       C  0.49976904  0.67730426  0.68759862    -0.20940
C2741       C  0.49028067  0.69230619  0.66093802    -0.07460
C2742       C  0.45989136  0.68859253  0.65030401     0.13410
C2743       C  0.44915642  0.70435867  0.62154199    -0.24290
H2744       H  0.41594972  0.66745515  0.65932640     0.14690
H2745       H  0.52319055  0.68010957  0.69562965     0.14720
C2746       C  0.49221564  0.64445304  0.73305845    -0.24240
H2747       H  0.42471572  0.69929158  0.61646775     0.04930
H2748       H  0.46307771  0.69653067  0.60180286     0.08160
H2749       H  0.45171336  0.72954158  0.62416223     0.08160
H2750       H  0.50084833  0.66269285  0.74862885     0.08140
H2751       H  0.47476787  0.63145389  0.74563059     0.08140
H2752       H  0.51142396  0.62875188  0.72741825     0.04920
C2753       C  0.52571044  0.55004772  0.76467690    -0.20880
C2754       C  0.50185723  0.55817897  0.74451144    -0.07450
C2755       C  0.50805911  0.55924928  0.71260825     0.13420
C2756       C  0.53835466  0.55637997  0.70260423    -0.20940
C2757       C  0.56268992  0.55073041  0.72297732    -0.07460
C2758       C  0.55583810  0.54525288  0.75421967     0.13410
C2759       C  0.57991073  0.53522792  0.77692059    -0.24290
H2760       H  0.52081976  0.54801386  0.78891923     0.14690
H2761       H  0.54313045  0.55948647  0.67843311     0.14720
C2762       C  0.48429202  0.56495603  0.68804805    -0.24240
H2763       H  0.56999115  0.53078004  0.79986935     0.04930
H2764       H  0.59739975  0.55323654  0.77977337     0.08160
H2765       H  0.59082684  0.51367980  0.76893796     0.08160
H2766       H  0.48818894  0.58776677  0.67751409     0.08140
H2767       H  0.46053923  0.56372514  0.69607415     0.08140
H2768       H  0.48639979  0.54713665  0.66997921     0.04920
C2769       C  0.51854598  0.69445183  0.84533504    -0.20880
C2770       C  0.50778206  0.72415083  0.85128184    -0.07450
C2771       C  0.47906604  0.73313186  0.83928308     0.13420
C2772       C  0.46160045  0.71171743  0.82231417    -0.20940
C2773       C  0.47256311  0.68178143  0.81703647    -0.07460
C2774       C  0.50193577  0.67359526  0.82771911     0.13410
C2775       C  0.51680455  0.64311315  0.82088127    -0.24290
H2776       H  0.54009467  0.68709335  0.85418529     0.14690
H2777       H  0.43887508  0.71789051  0.81433831     0.14720
C2778       C  0.46621811  0.76444719  0.84582081    -0.24240
H2779       H  0.51940374  0.62976121  0.84235957     0.04930
H2780       H  0.53981645  0.64693527  0.81107766     0.08160
H2781       H  0.50392903  0.62934270  0.80389108     0.08160
H2782       H  0.48148732  0.78223562  0.83613000     0.08140
H2783       H  0.46440996  0.76785887  0.87097827     0.08140
H2784       H  0.44304978  0.76742465  0.83557542     0.04920
C2785       C  0.61346829  0.91138476  0.28339119    -0.20880
C2786       C  0.63075114  0.93698647  0.29205255    -0.07450
C2787       C  0.63988241  0.94075763  0.32285440     0.13420
C2788       C  0.63217248  0.91802179  0.34428076    -0.20940
C2789       C  0.61583609  0.89182278  0.33516205    -0.07460
C2790       C  0.60599504  0.88872030  0.30452243     0.13410
C2791       C  0.58934767  0.86062375  0.29357364    -0.24290
H2792       H  0.60758559  0.90799664  0.25947136     0.14690
H2793       H  0.63984591  0.92008791  0.36786530     0.14720
C2794       C  0.65904174  0.96774721  0.33258950    -0.24240
H2795       H  0.58240208  0.86232754  0.26909832     0.04930
H2796       H  0.56853733  0.85753028  0.30744600     0.08160
H2797       H  0.60443093  0.84038299  0.29608593     0.08160
H2798       H  0.64642674  0.98932051  0.32770707     0.08140
H2799       H  0.68096028  0.96778150  0.31979044     0.08140
H2800       H  0.66446203  0.96705638  0.35748193     0.04920
C2801       C  0.56555213  0.77687285  0.27942608    -0.20880
C2802       C  0.59591967  0.77418485  0.29013893    -0.07450
C2803       C  0.62024265  0.77592815  0.26905213     0.13420
C2804       C  0.61389266  0.78367199  0.23856597    -0.20940
C2805       C  0.58385377  0.78948814  0.22851764    -0.07460
C2806       C  0.55921398  0.78452276  0.24867164     0.13410
C2807       C  0.52658625  0.78903988  0.23826559    -0.24290
H2808       H  0.54687652  0.77524767  0.29559781     0.14690
H2809       H  0.63267863  0.78638274  0.22264143     0.14720
C2810       C  0.65297031  0.77002806  0.27867062    -0.24240
H2811       H  0.51016804  0.78571976  0.25732728     0.04930
H2812       H  0.52098677  0.77228872  0.21992021     0.08160
H2813       H  0.52352061  0.81256323  0.22913687     0.08160
H2814       H  0.65472666  0.74711145  0.28958656     0.08140
H2815       H  0.66094572  0.78780174  0.29501841     0.08140
H2816       H  0.66871022  0.77037537  0.25876515     0.04920
C2817       C  0.51002065  0.84215380  0.32111542    -0.20880
C2818       C  0.50611661  0.83906345  0.35296775    -0.07450
C2819       C  0.48384761  0.85712610  0.36786758     0.13420
C2820       C  0.46864123  0.87992427  0.35129392    -0.20940
C2821       C  0.47520757  0.88550044  0.32031807    -0.07460
C2822       C  0.49536171  0.86575194  0.30465682     0.13410
C2823       C  0.50291805  0.87065785  0.27139043    -0.24290
H2824       H  0.52615448  0.82740616  0.30945431     0.14690
H2825       H  0.45185545  0.89405334  0.36291720     0.14720
C2826       C  0.47566068  0.85243161  0.40109874    -0.24240
H2827       H  0.52086865  0.85451118  0.26351563     0.04930
H2828       H  0.51167344  0.89429098  0.26800295     0.08160
H2829       H  0.48217921  0.86713394  0.25698456     0.08160
H2830       H  0.49486457  0.85939385  0.41629282     0.08140
H2831       H  0.46994881  0.82797889  0.40510629     0.08140
H2832       H  0.45545251  0.86637975  0.40777002     0.04920
C2833       C  0.67767749  0.72364909  0.42085981    -0.20880
C2834       C  0.64569069  0.71977768  0.41935873    -0.07450
C2835       C  0.63202534  0.69729068  0.43834233     0.13420
C2836       C  0.65018001  0.68176894  0.45997624    -0.20940
C2837       C  0.68157571  0.68809555  0.46369087    -0.07460
C2838       C  0.69576806  0.70835410  0.44276299     0.13410
C2839       C  0.72956398  0.71541925  0.44408834    -0.24290
H2840       H  0.68851746  0.74032329  0.40609767     0.14690
H2841       H  0.63931091  0.66551520  0.47519807     0.14720
C2842       C  0.59829595  0.68981280  0.43683096    -0.24240
H2843       H  0.73642858  0.73195631  0.42606484     0.04930
H2844       H  0.74297903  0.69410013  0.44049550     0.08160
H2845       H  0.73557765  0.72573066  0.46656762     0.08160
H2846       H  0.59162209  0.68416950  0.41289488     0.08140
H2847       H  0.58451043  0.70939076  0.44535351     0.08140
H2848       H  0.59250942  0.66975706  0.45133564     0.04920
C2849       C  0.52750784  0.77605806  0.49126564    -0.20880
C2850       C  0.55687925  0.77845306  0.47835264    -0.07450
C2851       C  0.58262165  0.76814679  0.49511363     0.13420
C2852       C  0.57838335  0.75489162  0.52375570    -0.20940
C2853       C  0.54945907  0.75358550  0.53754972    -0.07460
C2854       C  0.52356840  0.76433632  0.52118172     0.13410
C2855       C  0.49201783  0.76273142  0.53475811    -0.24290
H2856       H  0.50783350  0.78405577  0.47827462     0.14690
H2857       H  0.59831266  0.74650595  0.53611581     0.14720
C2858       C  0.61483754  0.77094840  0.48304775    -0.24240
H2859       H  0.47427671  0.77106840  0.51842044     0.04930
H2860       H  0.49092208  0.77720368  0.55564874     0.08160
H2861       H  0.48655242  0.73864972  0.54082122     0.08160
H2862       H  0.62089103  0.79538703  0.47984910     0.08140
H2863       H  0.61663916  0.75888764  0.46094602     0.08140
H2864       H  0.63207149  0.76079779  0.49890301     0.04920
C2865       C  0.69978219  0.84743342  0.44766043    -0.20880
C2866       C  0.66803090  0.85170630  0.45133542    -0.07450
C2867       C  0.65757614  0.87192135  0.47442493     0.13420
C2868       C  0.67878604  0.88951903  0.49071165    -0.20940
C2869       C  0.71044059  0.88677050  0.48600323    -0.07460
C2870       C  0.72119350  0.86447098  0.46505469     0.13410
C2871       C  0.75491063  0.85935902  0.46006303    -0.24290
H2872       H  0.70787340  0.83156578  0.43037284     0.14690
H2873       H  0.67031698  0.90570165  0.50748213     0.14720
C2874       C  0.62412459  0.87492574  0.48271640    -0.24240
H2875       H  0.75913698  0.84198703  0.44194395     0.04930
H2876       H  0.76579385  0.85095336  0.48151163     0.08160
H2877       H  0.76590241  0.88113031  0.45295853     0.08160
H2878       H  0.61428645  0.85194107  0.48720364     0.08140
H2879       H  0.61112955  0.88647678  0.46412740     0.08140
H2880       H  0.62090405  0.88886936  0.50377188     0.04920
C2881       C  0.91085167  0.38079706  0.60436404    -0.20880
C2882       C  0.88274632  0.37151285  0.59168522    -0.07450
C2883       C  0.87694467  0.34022519  0.58650603     0.13420
C2884       C  0.89787527  0.31869528  0.59719676    -0.20940
C2885       C  0.92426994  0.32777738  0.61298534    -0.07460
C2886       C  0.93186690  0.35902064  0.61537127     0.13410
C2887       C  0.96102667  0.36926026  0.63079450    -0.24290
H2888       H  0.91576576  0.40493343  0.60684015     0.14690
H2889       H  0.89284385  0.29451392  0.59459322     0.14720
C2890       C  0.84813151  0.32926211  0.57111312    -0.24240
H2891       H  0.96298943  0.39463823  0.63116963     0.04930
H2892       H  0.98104068  0.35990491  0.61828870     0.08160
H2893       H  0.96161375  0.36090023  0.65480755     0.08160
H2894       H  0.84498103  0.34112619  0.54882384     0.08140
H2895       H  0.82854063  0.33380609  0.58633100     0.08140
H2896       H  0.84867737  0.30419119  0.56669305     0.04920
C2897       C  0.75550223  0.27764991  0.58078105    -0.20880
C2898       C  0.77450909  0.26687667  0.55722251    -0.07450
C2899       C  0.78662617  0.28782953  0.53599123     0.13420
C2900       C  0.78051877  0.31926089  0.53958174    -0.20940
C2901       C  0.76356657  0.33020397  0.56456077    -0.07460
C2902       C  0.74990620  0.30914863  0.58469591     0.13410
C2903       C  0.73030463  0.32006023  0.61079592    -0.24290
H2904       H  0.74643150  0.26157610  0.59720007     0.14690
H2905       H  0.79131972  0.33555723  0.52444061     0.14720
C2906       C  0.80800887  0.27728344  0.51116148    -0.24240
H2907       H  0.72103198  0.30060141  0.62423685     0.04930
H2908       H  0.71068416  0.33352472  0.60161736     0.08160
H2909       H  0.74399454  0.33475234  0.62647537     0.08160
H2910       H  0.79590589  0.26123932  0.49550038     0.08140
H2911       H  0.82814352  0.26549274  0.52146238     0.08140
H2912       H  0.81660489  0.29686535  0.49759335     0.04920
C2913       C  0.89034943  0.38095882  0.46492901    -0.20880
C2914       C  0.88100125  0.35330471  0.45137426    -0.07450
C2915       C  0.85006040  0.34409684  0.45473945     0.13420
C2916       C  0.82987117  0.36253356  0.47212464    -0.20940
C2917       C  0.83941902  0.39052478  0.48524557    -0.07460
C2918       C  0.87023686  0.40004944  0.48068964     0.13410
C2919       C  0.88292026  0.43045040  0.49168743    -0.24290
H2920       H  0.91387714  0.38843684  0.46257479     0.14690
H2921       H  0.80635386  0.35526735  0.47499914     0.14720
C2922       C  0.83791585  0.31552162  0.43957003    -0.24240
H2923       H  0.90720013  0.43383873  0.48500442     0.04930
H2924       H  0.88231281  0.43190310  0.51699856     0.08160
H2925       H  0.86969174  0.44958020  0.48129403     0.08160
H2926       H  0.85034696  0.29510793  0.44840447     0.08140
H2927       H  0.84081796  0.31713966  0.41436967     0.08140
H2928       H  0.81311334  0.31224584  0.44403411     0.04920
C2929       C  0.69762982  0.45271131  0.63937040    -0.20880
C2930       C  0.71852503  0.46463259  0.61806053    -0.07450
C2931       C  0.72440268  0.49656675  0.61801021     0.13420
C2932       C  0.70901753  0.51564715  0.63866273    -0.20940
C2933       C  0.68792927  0.50382630  0.65950260    -0.07460
C2934       C  0.68191103  0.47209464  0.65985038     0.13410
C2935       C  0.65905951  0.45886283  0.68183311    -0.24290
H2936       H  0.69362610  0.42821348  0.63997342     0.14690
H2937       H  0.71337361  0.54011389  0.63847545     0.14720
C2938       C  0.74760784  0.51071050  0.59698578    -0.24240
H2939       H  0.65708054  0.43361706  0.67924975     0.04930
H2940       H  0.63614483  0.46914533  0.67756798     0.08160
H2941       H  0.66629337  0.46395099  0.70573613     0.08160
H2942       H  0.74005871  0.50734186  0.57302989     0.08140
H2943       H  0.77037159  0.49995300  0.60068907     0.08140
H2944       H  0.75006183  0.53575960  0.60082990     0.04920
C2945       C  0.79917329  0.54107111  0.52473480    -0.20880
C2946       C  0.77807919  0.51714087  0.52164991    -0.07450
C2947       C  0.74765305  0.52394144  0.51237186     0.13420
C2948       C  0.73821059  0.55466498  0.51118162    -0.20940
C2949       C  0.75852770  0.57868708  0.51807464    -0.07460
C2950       C  0.79009435  0.57171823  0.52264537     0.13410
C2951       C  0.81456260  0.59586731  0.52657254    -0.24290
H2952       H  0.82284446  0.53574294  0.53025052     0.14690
H2953       H  0.71440946  0.55983109  0.50617502     0.14720
C2954       C  0.72448205  0.49928111  0.50530220    -0.24240
H2955       H  0.83783061  0.58570278  0.52865108     0.04930
H2956       H  0.81055258  0.60925160  0.54773623     0.08160
H2957       H  0.81469735  0.61124575  0.50632226     0.08160
H2958       H  0.72067797  0.48472381  0.52571408     0.08140
H2959       H  0.73272002  0.48494808  0.48599197     0.08140
H2960       H  0.70195864  0.50907042  0.49845324     0.04920
C2961       C  0.82822671  0.50336044  0.66586429    -0.20880
C2962       C  0.84549281  0.48213992  0.64904062    -0.07450
C2963       C  0.87700939  0.47847269  0.65623780     0.13420
C2964       C  0.89077798  0.49736920  0.67836997    -0.20940
C2965       C  0.87404994  0.51978201  0.69408599    -0.07460
C2966       C  0.84210653  0.52228378  0.68820323     0.13410
C2967       C  0.82266136  0.54534352  0.70469120    -0.24290
H2968       H  0.80399564  0.50584088  0.66080412     0.14690
H2969       H  0.91510792  0.49505947  0.68298889     0.14720
C2970       C  0.89630347  0.45414077  0.64126464    -0.24240
H2971       H  0.79847659  0.54498474  0.69661422     0.04930
H2972       H  0.83175918  0.56881554  0.70120422     0.08160
H2973       H  0.82285304  0.53960914  0.72936630     0.08160
H2974       H  0.89877833  0.45895376  0.61645920     0.08140
H2975       H  0.88541684  0.43143557  0.64467330     0.08140
H2976       H  0.91974393  0.45306248  0.65125957     0.04920
loop_ 
_geom_bond_atom_site_label_1 
_geom_bond_atom_site_label_2 
_geom_bond_distance 
_geom_bond_site_symmetry_2 
_ccdc_geom_bond_type 
O1          Cr19   1.993       .  S
O1            C9   1.266       .  A
O2          Cr19   2.013       .  S
O2            C3   1.266       .  A
C3            O4   1.265       .  A
C3         C2946   1.479       .  S
O4          Cr20   1.967       .  S
O5          Cr20   2.002       .  S
O5            C6   1.263       .  A
C6            O7   1.262       .  A
C6         C2962   1.489       .  S
O7          Cr21   1.994       .  S
O8          Cr21   2.001       .  S
O8            C9   1.265       .  A
C9         C2930   1.484       .  S
O10         Cr19   2.004       .  S
O10          C18   1.260       .  A
O11         Cr19   2.015       .  S
O11          C12   1.264       .  A
C12          O13   1.256       .  A
C12        C2917   1.496       .  S
O13         Cr20   1.986       .  S
O14         Cr20   1.969       .  S
O14          C15   1.257       .  A
C15          O16   1.267       .  A
C15        C2882   1.458       .  S
O16         Cr21   2.005       .  S
O17         Cr21   1.969       .  S
O17          C18   1.256       .  A
C18        C2901   1.475       .  S
Cr19         O22   1.779       .  S
Cr20         O22   1.764       .  S
Cr21         O22   1.771       .  S
O23         Cr41   1.971       .  S
O23          C31   1.260       .  A
O24         Cr41   2.030       .  S
O24          C25   1.272       .  A
C25          O26   1.260       .  A
C25        C2850   1.474       .  S
O26         Cr42   1.961       .  S
O27         Cr42   1.992       .  S
O27          C28   1.261       .  A
C28          O29   1.261       .  A
C28        C2866   1.483       .  S
O29         Cr43   1.992       .  S
O30         Cr43   2.005       .  S
O30          C31   1.267       .  A
C31        C2834   1.493       .  S
O32         Cr41   2.007       .  S
O32          C40   1.265       .  A
O33         Cr41   1.985       .  S
O33          C34   1.255       .  A
C34          O35   1.258       .  A
C34        C2818   1.477       .  S
O35         Cr42   1.991       .  S
O36         Cr42   1.974       .  S
O36          C37   1.262       .  A
C37          O38   1.269       .  A
C37        C2789   1.466       .  S
O38         Cr43   2.016       .  S
O39         Cr43   1.960       .  S
O39          C40   1.257       .  A
C40        C2802   1.476       .  S
Cr41         O44   1.777       .  S
Cr42         O44   1.765       .  S
Cr43         O44   1.769       .  S
O45         Cr63   1.989       .  S
O45          C53   1.264       .  A
O46         Cr63   2.016       .  S
O46          C47   1.266       .  A
C47          O48   1.268       .  A
C47        C2754   1.487       .  S
O48         Cr64   1.990       .  S
O49         Cr64   1.998       .  S
O49          C50   1.263       .  A
C50          O51   1.255       .  A
C50        C2773   1.474       .  S
O51         Cr65   1.972       .  S
O52         Cr65   2.009       .  S
O52          C53   1.267       .  A
C53        C2738   1.483       .  S
O54         Cr63   2.006       .  S
O54          C62   1.260       .  A
O55         Cr63   2.014       .  S
O55          C56   1.265       .  A
C56          O57   1.254       .  A
C56        C2722   1.493       .  S
O57         Cr64   1.980       .  S
O58         Cr64   1.987       .  S
O58          C59   1.262       .  A
C59          O60   1.269       .  A
C59        C2690   1.477       .  S
O60         Cr65   2.012       .  S
O61         Cr65   1.950       .  S
O61          C62   1.250       .  A
C62        C2706   1.476       .  S
Cr63         O66   1.782       .  S
Cr64         O66   1.770       .  S
Cr65         O66   1.777       .  S
O67         Cr85   2.004       .  S
O67          C75   1.264       .  A
O68         Cr85   1.985       .  S
O68          C69   1.256       .  A
C69          O70   1.258       .  A
C69        C2674   1.474       .  S
O70         Cr86   2.001       .  S
O71         Cr86   1.987       .  S
O71          C72   1.268       .  A
C72          O73   1.270       .  A
C72         C103   1.465       .  S
O73         Cr87   1.999       .  S
O74         Cr87   1.968       .  S
O74          C75   1.259       .  A
C75        C2837   1.492       .  S
O76         Cr85   1.948       .  S
O76          C84   1.252       .  A
O77         Cr85   2.022       .  S
O77          C78   1.271       .  A
C78          O79   1.258       .  A
C78        C2661   1.468       .  S
O79         Cr86   1.952       .  S
O80         Cr86   1.971       .  S
O80          C81   1.257       .  A
C81          O82   1.262       .  A
C81         C116   1.475       .  S
O82         Cr87   2.013       .  S
O83         Cr87   2.008       .  S
O83          C84   1.267       .  A
C84        C2949   1.487       .  S
Cr85         O88   1.780       .  S
Cr86         O88   1.769       .  S
Cr87         O88   1.778       .  S
O89        Cr107   1.987       .  S
O89          C97   1.261       .  A
O90        Cr107   2.038       .  S
O90          C91   1.272       .  A
C91          O92   1.256       .  A
C91        C2642   1.476       .  S
O92        Cr108   1.952       .  S
O93        Cr108   1.992       .  S
O93          C94   1.263       .  A
C94          O95   1.261       .  A
C94         C125   1.453       .  S
O95        Cr109   1.978       .  S
O96        Cr109   2.007       .  S
O96          C97   1.263       .  A
C97        C2741   1.475       .  S
O98        Cr107   2.029       .  S
O98         C106   1.270       .  A
O99        Cr107   1.988       .  S
O99         C100   1.259       .  A
C100        O101   1.261       .  A
C100       C2626   1.469       .  S
O101       Cr108   1.992       .  S
O102       Cr108   1.985       .  S
O102        C103   1.259       .  A
C103        O104   1.266       .  A
O104       Cr109   1.996       .  S
O105       Cr109   1.941       .  S
O105        C106   1.254       .  A
C106       C2853   1.481       .  S
Cr107       O110   1.777       .  S
Cr108       O110   1.767       .  S
Cr109       O110   1.774       .  S
O111       Cr129   1.990       .  S
O111        C119   1.263       .  A
O112       Cr129   2.029       .  S
O112        C113   1.267       .  A
C113        O114   1.255       .  A
C113       C2610   1.481       .  S
O114       Cr130   1.954       .  S
O115       Cr130   1.977       .  S
O115        C116   1.264       .  A
C116        O117   1.266       .  A
O117       Cr131   2.010       .  S
O118       Cr131   2.000       .  S
O118        C119   1.263       .  A
C119       C2933   1.472       .  S
O120       Cr129   2.021       .  S
O120        C128   1.268       .  A
O121       Cr129   1.981       .  S
O121        C122   1.258       .  A
C122        O123   1.262       .  A
C122       C2594   1.467       .  S
O123       Cr130   1.996       .  S
O124       Cr130   1.968       .  S
O124        C125   1.256       .  A
C125        O126   1.262       .  A
O126       Cr131   1.997       .  S
O127       Cr131   1.966       .  S
O127        C128   1.259       .  A
C128       C2757   1.491       .  S
Cr129       O132   1.783       .  S
Cr130       O132   1.763       .  S
Cr131       O132   1.781       .  S
O133       Cr151   2.009       .  S
O133        C141   1.267       .  A
O134       Cr151   1.986       .  S
O134        C135   1.262       .  A
C135        O136   1.265       .  A
C135       C2546   1.498       .  S
O136       Cr152   2.000       .  S
O137       Cr152   2.000       .  S
O137        C138   1.264       .  A
C138        O139   1.263       .  A
C138       C2578   1.484       .  S
O139       Cr153   1.988       .  S
O140       Cr153   1.974       .  S
O140        C141   1.264       .  A
C141       C2562   1.469       .  S
O142       Cr151   1.988       .  S
O142        C150   1.261       .  A
O143       Cr151   2.016       .  S
O143        C144   1.264       .  A
C144        O145   1.255       .  A
C144       C2514   1.485       .  S
O145       Cr152   1.966       .  S
O146       Cr152   1.997       .  S
O146        C147   1.264       .  A
C147        O148   1.267       .  A
C147       C2498   1.479       .  S
O148       Cr153   1.998       .  S
O149       Cr153   1.993       .  S
O149        C150   1.253       .  A
C150       C2530   1.484       .  S
Cr151       O154   1.784       .  S
Cr152       O154   1.770       .  S
Cr153       O154   1.765       .  S
O155       Cr173   2.032       .  S
O155        C163   1.275       .  A
O156       Cr173   1.983       .  S
O156        C157   1.259       .  A
C157        O158   1.259       .  A
C157       C2450   1.480       .  S
O158       Cr174   1.997       .  S
O159       Cr174   1.985       .  S
O159        C160   1.263       .  A
C160        O161   1.262       .  A
C160       C2482   1.476       .  S
O161       Cr175   1.994       .  S
O162       Cr175   1.961       .  S
O162        C163   1.259       .  A
C163       C2466   1.498       .  S
O164       Cr173   1.982       .  S
O164        C172   1.254       .  A
O165       Cr173   2.036       .  S
O165        C166   1.272       .  A
C166        O167   1.258       .  A
C166       C2418   1.499       .  S
O167       Cr174   1.949       .  S
O168       Cr174   1.981       .  S
O168        C169   1.260       .  A
C169        O170   1.267       .  A
C169       C2405   1.482       .  S
O170       Cr175   1.988       .  S
O171       Cr175   1.996       .  S
O171        C172   1.259       .  A
C172       C2434   1.476       .  S
Cr173       O176   1.776       .  S
Cr174       O176   1.765       .  S
Cr175       O176   1.772       .  S
O177       Cr195   2.019       .  S
O177        C185   1.270       .  A
O178       Cr195   1.982       .  S
O178        C179   1.261       .  A
C179        O180   1.263       .  A
C179       C2354   1.472       .  S
O180       Cr196   2.007       .  S
O181       Cr196   1.970       .  S
O181        C182   1.259       .  A
C182        O183   1.267       .  A
C182       C2386   1.465       .  S
O183       Cr197   2.003       .  S
O184       Cr197   1.967       .  S
O184        C185   1.260       .  A
C185       C2370   1.480       .  S
O186       Cr195   1.983       .  S
O186        C194   1.258       .  A
O187       Cr195   2.019       .  S
O187        C188   1.268       .  A
C188        O189   1.256       .  A
C188       C2322   1.475       .  S
O189       Cr196   1.955       .  S
O190       Cr196   2.000       .  S
O190        C191   1.262       .  A
C191        O192   1.258       .  A
C191       C2306   1.461       .  S
O192       Cr197   1.977       .  S
O193       Cr197   1.998       .  S
O193        C194   1.264       .  A
C194       C2338   1.482       .  S
Cr195       O198   1.778       .  S
Cr196       O198   1.771       .  S
Cr197       O198   1.764       .  S
O199       Cr217   1.985       .  S
O199        C207   1.259       .  A
O200       Cr217   2.002       .  S
O200        C201   1.265       .  A
C201        O202   1.263       .  A
C201       C2274   1.455       .  S
O202       Cr218   1.966       .  S
O203       Cr218   1.967       .  S
O203        C204   1.252       .  A
C204        O205   1.263       .  A
C204        C257   1.456       .  S
O205       Cr219   1.998       .  S
O206       Cr219   1.986       .  S
O206        C207   1.256       .  A
C207       C2373   1.497       .  S
O208       Cr217   2.019       .  S
O208        C216   1.269       .  A
O209       Cr217   2.007       .  S
O209        C210   1.263       .  A
C210        O211   1.253       .  A
C210       C2290   1.494       .  S
O211       Cr218   1.958       .  S
O212       Cr218   2.008       .  S
O212        C213   1.270       .  A
C213        O214   1.261       .  A
C213        C226   1.465       .  S
O214       Cr219   1.970       .  S
O215       Cr219   1.958       .  S
O215        C216   1.256       .  A
C216       C2453   1.481       .  S
Cr217       O220   1.790       .  S
Cr218       O220   1.773       .  S
Cr219       O220   1.781       .  S
O221       Cr239   2.016       .  S
O221        C229   1.264       .  A
O222       Cr239   1.994       .  S
O222        C223   1.262       .  A
C223        O224   1.264       .  A
C223       C2242   1.478       .  S
O224       Cr240   1.994       .  S
O225       Cr240   1.983       .  S
O225        C226   1.257       .  A
C226        O227   1.267       .  A
O227       Cr241   1.993       .  S
O228       Cr241   1.975       .  S
O228        C229   1.256       .  A
C229       C2469   1.476       .  S
O230       Cr239   1.987       .  S
O230        C238   1.266       .  A
O231       Cr239   2.033       .  S
O231        C232   1.267       .  A
C232        O233   1.255       .  A
C232       C2258   1.474       .  S
O233       Cr240   1.955       .  S
O234       Cr240   1.983       .  S
O234        C235   1.265       .  A
C235        O236   1.264       .  A
C235        C248   1.474       .  S
O236       Cr241   2.003       .  S
O237       Cr241   2.014       .  S
O237        C238   1.271       .  A
C238       C2549   1.497       .  S
Cr239       O242   1.784       .  S
Cr240       O242   1.763       .  S
Cr241       O242   1.772       .  S
O243       Cr261   1.961       .  S
O243        C251   1.254       .  A
O244       Cr261   2.033       .  S
O244        C245   1.274       .  A
C245        O246   1.260       .  A
C245       C2213   1.481       .  S
O246       Cr262   1.957       .  S
O247       Cr262   1.967       .  S
O247        C248   1.256       .  A
C248        O249   1.262       .  A
O249       Cr263   2.016       .  S
O250       Cr263   1.992       .  S
O250        C251   1.261       .  A
C251       C2565   1.461       .  S
O252       Cr261   2.020       .  S
O252        C260   1.268       .  A
O253       Cr261   1.997       .  S
O253        C254   1.258       .  A
C254        O255   1.254       .  A
C254       C2226   1.471       .  S
O255       Cr262   1.990       .  S
O256       Cr262   1.985       .  S
O256        C257   1.269       .  A
C257        O258   1.267       .  A
O258       Cr263   1.999       .  S
O259       Cr263   1.959       .  S
O259        C260   1.255       .  A
C260       C2357   1.476       .  S
Cr261       O264   1.786       .  S
Cr262       O264   1.764       .  S
Cr263       O264   1.785       .  S
O265       Cr283   2.024   1_455  S
O265        C273   1.271   1_455  A
O266       Cr283   1.995       .  S
O266        C267   1.264       .  A
C267        O268   1.263       .  A
C267       C2178   1.500       .  S
O268       Cr284   1.991       .  S
O269       Cr284   1.995       .  S
O269        C270   1.262       .  A
C270        O271   1.264       .  A
C270       C2914   1.495       .  S
O271       Cr285   1.986       .  S
O272       Cr285   1.976       .  S
O272        C273   1.269       .  A
C273       C2194   1.494   1_655  S
O274       Cr283   2.001   1_455  S
O274        C282   1.258       .  A
O275       Cr283   2.022       .  S
O275        C276   1.268       .  A
C276        O277   1.260       .  A
C276       C2146   1.490       .  S
O277       Cr284   1.967       .  S
O278       Cr284   1.996       .  S
O278        C279   1.266       .  A
C279        O280   1.265       .  A
C279       C2130   1.488       .  S
O280       Cr285   2.008       .  S
O281       Cr285   1.974   1_455  S
O281        C282   1.248       .  A
C282       C2165   1.483       .  S
Cr283       O286   1.778       .  S
Cr284       O286   1.768       .  S
Cr285       O286   1.760       .  S
O287       Cr305   2.026       .  S
O287        C295   1.268       .  A
O288       Cr305   1.990       .  S
O288        C289   1.261       .  A
C289        O290   1.263       .  A
C289       C2082   1.494       .  S
O290       Cr306   1.995       .  S
O291       Cr306   1.980       .  S
O291        C292   1.260       .  A
C292        O293   1.268       .  A
C292       C2114   1.491       .  S
O293       Cr307   1.994       .  S
O294       Cr307   1.959       .  S
O294        C295   1.258       .  A
C295       C2101   1.472       .  S
O296       Cr305   1.976       .  S
O296        C304   1.255       .  A
O297       Cr305   2.026       .  S
O297        C298   1.268       .  A
C298        O299   1.258       .  A
C298       C2050   1.492       .  S
O299       Cr306   1.948       .  S
O300       Cr306   1.994       .  S
O300        C301   1.263       .  A
C301        O302   1.263       .  A
C301       C2034   1.478       .  S
O302       Cr307   1.985       .  S
O303       Cr307   1.999       .  S
O303        C304   1.263       .  A
C304       C2069   1.468       .  S
Cr305       O308   1.780       .  S
Cr306       O308   1.760       .  S
Cr307       O308   1.766       .  S
O309       Cr327   2.039       .  S
O309        C317   1.273       .  A
O310       Cr327   1.988       .  S
O310        C311   1.266       .  A
C311        O312   1.263       .  A
C311       C1986   1.485       .  S
O312       Cr328   2.010       .  S
O313       Cr328   1.987       .  S
O313        C314   1.264       .  A
C314        O315   1.266       .  A
C314       C2018   1.487       .  S
O315       Cr329   1.986       .  S
O316       Cr329   1.958       .  S
O316        C317   1.261       .  A
C317       C2002   1.494   1_565  S
O318       Cr327   1.997       .  S
O318        C326   1.258       .  A
O319       Cr327   2.013       .  S
O319        C320   1.266       .  A
C320        O321   1.255       .  A
C320       C2677   1.469       .  S
O321       Cr328   1.958       .  S
O322       Cr328   1.994       .  S
O322        C323   1.262       .  A
C323        O324   1.261       .  A
C323       C2629   1.476       .  S
O324       Cr329   1.982       .  S
O325       Cr329   1.987       .  S
O325        C326   1.260       .  A
C326       C2869   1.486       .  S
Cr327       O330   1.781       .  S
Cr328       O330   1.774       .  S
Cr329       O330   1.762       .  S
O331       Cr349   2.029       .  S
O331        C339   1.271       .  A
O332       Cr349   1.994       .  S
O332        C333   1.263       .  A
C333        O334   1.264       .  A
C333       C1970   1.482       .  S
O334       Cr350   1.992       .  S
O335       Cr350   1.999       .  S
O335        C336   1.263       .  A
C336        O337   1.255       .  A
C336        C389   1.462       .  S
O337       Cr351   1.980       .  S
O338       Cr351   1.956       .  S
O338        C339   1.257       .  A
C339       C2005   1.475       .  S
O340       Cr349   1.996       .  S
O340        C348   1.260       .  A
O341       Cr349   2.018       .  S
O341        C342   1.266       .  A
C342        O343   1.258       .  A
C342       C2898   1.476       .  S
O343       Cr350   1.969       .  S
O344       Cr350   1.999       .  S
O344        C345   1.266       .  A
C345        O346   1.267       .  A
C345        C358   1.466       .  S
O346       Cr351   1.991       .  S
O347       Cr351   1.986       .  S
O347        C348   1.257       .  A
C348       C2181   1.480       .  S
Cr349       O352   1.791       .  S
Cr350       O352   1.775       .  S
Cr351       O352   1.787       .  S
O353       Cr371   2.023   1_455  S
O353        C361   1.269   1_455  A
O354       Cr371   1.957       .  S
O354        C355   1.256       .  A
C355        O356   1.260       .  A
C355       C2885   1.455       .  S
O356       Cr372   1.980       .  S
O357       Cr372   1.987       .  S
O357        C358   1.262       .  A
C358        O359   1.259       .  A
O359       Cr373   1.992       .  S
O360       Cr373   1.980       .  S
O360        C361   1.260       .  A
C361       C2197   1.488   1_655  S
O362       Cr371   1.983   1_455  S
O362        C370   1.261       .  A
O363       Cr371   2.015       .  S
O363        C364   1.262       .  A
C364        O365   1.253       .  A
C364       C1954   1.477       .  S
O365       Cr372   1.959       .  S
O366       Cr372   1.964       .  S
O366        C367   1.257       .  A
C367        O368   1.266       .  A
C367        C380   1.452       .  S
O368       Cr373   1.996       .  S
O369       Cr373   2.003   1_455  S
O369        C370   1.265       .  A
C370       C2085   1.492       .  S
Cr371       O374   1.788       .  S
Cr372       O374   1.772       .  S
Cr373       O374   1.780       .  S
O375       Cr393   2.028       .  S
O375        C383   1.271       .  A
O376       Cr393   1.982       .  S
O376        C377   1.256       .  A
C377        O378   1.259       .  A
C377       C1922   1.463       .  S
O378       Cr394   1.991       .  S
O379       Cr394   1.978       .  S
O379        C380   1.262       .  A
C380        O381   1.261       .  A
O381       Cr395   1.993       .  S
O382       Cr395   1.951       .  S
O382        C383   1.255       .  A
C383       C2098   1.484       .  S
O384       Cr393   1.987       .  S
O384        C392   1.261       .  A
O385       Cr393   2.048       .  S
O385        C386   1.273       .  A
C386        O387   1.254       .  A
C386       C1941   1.484       .  S
O387       Cr394   1.947       .  S
O388       Cr394   1.982       .  S
O388        C389   1.259       .  A
C389        O390   1.268       .  A
O390       Cr395   2.000       .  S
O391       Cr395   2.000       .  S
O391        C392   1.261       .  A
C392       C1989   1.470       .  S
Cr393       O396   1.784       .  S
Cr394       O396   1.765       .  S
Cr395       O396   1.779       .  S
O397       Cr415   1.990       .  S
O397        C405   1.263       .  A
O398       Cr415   2.022       .  S
O398        C399   1.270       .  A
C399        O400   1.263       .  A
C399       C1906   1.485       .  S
O400       Cr416   1.981       .  S
O401       Cr416   1.993       .  S
O401        C402   1.263       .  A
C402        O403   1.263       .  A
C402       C2437   1.474       .  S
O403       Cr417   1.993       .  S
O404       Cr417   1.994       .  S
O404        C405   1.263       .  A
C405       C1890   1.483       .  S
O406       Cr415   2.015       .  S
O406        C414   1.264       .  A
O407       Cr415   1.994       .  S
O407        C408   1.261       .  A
C408        O409   1.258       .  A
C408       C2021   1.489       .  S
O409       Cr416   1.983       .  S
O410       Cr416   1.994       .  S
O410        C411   1.264       .  A
C411        O412   1.265       .  A
C411       C1973   1.488       .  S
O412       Cr417   1.992       .  S
O413       Cr417   1.974       .  S
O413        C414   1.261       .  A
C414       C1938   1.486       .  S
Cr415       O418   1.779       .  S
Cr416       O418   1.773       .  S
Cr417       O418   1.765       .  S
O419       Cr437   1.989       .  S
O419        C427   1.266       .  A
O420       Cr437   2.030       .  S
O420        C421   1.272       .  A
C421        O422   1.265       .  A
C421       C1874   1.491   1_565  S
O422       Cr438   1.976       .  S
O423       Cr438   2.017       .  S
O423        C424   1.268       .  A
C424        O425   1.258       .  A
C424       C2066   1.471       .  S
O425       Cr439   1.972       .  S
O426       Cr439   2.012       .  S
O426        C427   1.267       .  A
C427       C1858   1.491       .  S
O428       Cr437   2.028       .  S
O428        C436   1.266       .  A
O429       Cr437   1.999       .  S
O429        C430   1.263       .  A
C430        O431   1.257       .  A
C430       C1842   1.495   1_556  S
O431       Cr438   1.994       .  S
O432       Cr438   1.969       .  S
O432        C433   1.254       .  A
C433        O434   1.263       .  A
C433       C1810   1.453       .  S
O434       Cr439   1.985       .  S
O435       Cr439   1.967       .  S
O435        C436   1.252       .  A
C436       C1826   1.484       .  S
Cr437       O440   1.779       .  S
Cr438       O440   1.774       .  S
Cr439       O440   1.768       .  S
O441       Cr459   1.983       .  S
O441        C449   1.263       .  A
O442       Cr459   2.029       .  S
O442        C443   1.270       .  A
C443        O444   1.262       .  A
C443       C1778   1.480       .  S
O444       Cr460   1.975       .  S
O445       Cr460   2.013       .  S
O445        C446   1.266       .  A
C446        O447   1.259       .  A
C446       C1797   1.474       .  S
O447       Cr461   1.980       .  S
O448       Cr461   2.002       .  S
O448        C449   1.264       .  A
C449       C1762   1.488       .  S
O450       Cr459   2.009       .  S
O450        C458   1.265       .  A
O451       Cr459   1.987       .  S
O451        C452   1.258       .  A
C452        O453   1.263       .  A
C452       C2581   1.485       .  S
O453       Cr460   2.002       .  S
O454       Cr460   1.984       .  S
O454        C455   1.261       .  A
C455        O456   1.267       .  A
C455       C2210   1.475       .  S
O456       Cr461   2.008       .  S
O457       Cr461   1.962       .  S
O457        C458   1.259       .  A
C458       C2261   1.473       .  S
Cr459       O462   1.778       .  S
Cr460       O462   1.769       .  S
Cr461       O462   1.767       .  S
O463       Cr481   1.974       .  S
O463        C471   1.261       .  A
O464       Cr481   2.053       .  S
O464        C465   1.272       .  A
C465        O466   1.254       .  A
C465       C2421   1.495       .  S
O466       Cr482   1.960       .  S
O467       Cr482   1.970       .  S
O467        C468   1.264       .  A
C468        O469   1.261       .  A
C468        C499   1.471       .  S
O469       Cr483   2.004       .  S
O470       Cr483   2.008       .  S
O470        C471   1.268       .  A
C471       C1893   1.496       .  S
O472       Cr481   2.026       .  S
O472        C480   1.268       .  A
O473       Cr481   1.979       .  S
O473        C474   1.258       .  A
C474        O475   1.262       .  A
C474       C1746   1.475       .  S
O475       Cr482   2.000       .  S
O476       Cr482   1.981       .  S
O476        C477   1.261       .  A
C477        O478   1.268       .  A
C477        C512   1.468       .  S
O478       Cr483   2.016       .  S
O479       Cr483   1.945       .  S
O479        C480   1.256       .  A
C480       C1781   1.489       .  S
Cr481       O484   1.783       .  S
Cr482       O484   1.755       .  S
Cr483       O484   1.784       .  S
O485       Cr503   2.023       .  S
O485        C493   1.268       .  A
O486       Cr503   2.031       .  S
O486        C487   1.265       .  A
C487        O488   1.247       .  A
C487       C2053   1.492       .  S
O488       Cr504   1.969       .  S
O489       Cr504   1.990       .  S
O489        C490   1.268       .  A
C490        O491   1.271       .  A
C490        C521   1.468       .  S
O491       Cr505   2.003       .  S
O492       Cr505   1.957       .  S
O492        C493   1.258       .  A
C493       C1861   1.480   1_545  S
O494       Cr503   1.984       .  S
O494        C502   1.260       .  A
O495       Cr503   2.031       .  S
O495        C496   1.273       .  A
C496        O497   1.258       .  A
C496       C2402   1.458       .  S
O497       Cr504   1.948       .  S
O498       Cr504   1.944       .  S
O498        C499   1.250       .  A
C499        O500   1.263       .  A
O500       Cr505   2.027       .  S
O501       Cr505   1.991       .  S
O501        C502   1.264       .  A
C502       C1909   1.494       .  S
Cr503       O506   1.786       .  S
Cr504       O506   1.757       .  S
Cr505       O506   1.778       .  S
O507       Cr525   1.984       .  S
O507        C515   1.263   1_556  A
O508       Cr525   2.028       .  S
O508        C509   1.267       .  A
C509        O510   1.257       .  A
C509       C1730   1.484       .  S
O510       Cr526   1.966       .  S
O511       Cr526   2.003       .  S
O511        C512   1.266       .  A
C512        O513   1.264       .  A
O513       Cr527   1.987       .  S
O514       Cr527   2.013       .  S
O514        C515   1.269   1_556  A
C515       C1765   1.501       .  S
O516       Cr525   2.015       .  S
O516        C524   1.266       .  A
O517       Cr525   1.978       .  S
O517        C518   1.258       .  A
C518        O519   1.265       .  A
C518       C2037   1.467       .  S
O519       Cr526   2.002       .  S
O520       Cr526   1.990       .  S
O520        C521   1.260       .  A
C521        O522   1.263       .  A
O522       Cr527   1.989       .  S
O523       Cr527   1.974       .  S
O523        C524   1.257       .  A
C524       C1877   1.486       .  S
Cr525       O528   1.781       .  S
Cr526       O528   1.774       .  S
Cr527       O528   1.775       .  S
O529       Cr547   2.052       .  S
O529        C537   1.281       .  A
O530       Cr547   1.963       .  S
O530        C531   1.253       .  A
C531        O532   1.266       .  A
C531       C1714   1.493       .  S
O532       Cr548   2.013       .  S
O533       Cr548   1.962       .  S
O533        C534   1.252       .  A
C534        O535   1.265       .  A
C534       C2341   1.486       .  S
O535       Cr549   2.020       .  S
O536       Cr549   1.942       .  S
O536        C537   1.258       .  A
C537       C1701   1.481       .  S
O538       Cr547   1.952       .  S
O538        C546   1.249       .  A
O539       Cr547   2.044       .  S
O539        C540   1.275       .  A
C540        O541   1.252       .  A
C540       C1682   1.501       .  S
O541       Cr548   1.937       .  S
O542       Cr548   2.039       .  S
O542        C543   1.274       .  A
C543        O544   1.256       .  A
C543       C1650   1.490       .  S
O544       Cr549   1.944       .  S
O545       Cr549   2.017       .  S
O545        C546   1.262       .  A
C546       C1666   1.497       .  S
Cr547       O550   1.780       .  S
Cr548       O550   1.771       .  S
Cr549       O550   1.784       .  S
O551       Cr569   1.995       .  S
O551        C559   1.266       .  A
O552       Cr569   2.024   1_545  S
O552        C553   1.269       .  A
C553        O554   1.264   1_545  A
C553       C1618   1.485   1_655  S
O554       Cr570   1.963       .  S
O555       Cr570   2.005       .  S
O555        C556   1.264       .  A
C556        O557   1.259       .  A
C556       C1634   1.472       .  S
O557       Cr571   1.983       .  S
O558       Cr571   2.002       .  S
O558        C559   1.268       .  A
C559       C1602   1.505       .  S
O560       Cr569   2.016       .  S
O560        C568   1.264       .  A
O561       Cr569   2.008   1_545  S
O561        C562   1.262       .  A
C562        O563   1.252       .  A
C562       C1589   1.493       .  S
O563       Cr570   1.991   1_545  S
O564       Cr570   1.970       .  S
O564        C565   1.257       .  A
C565        O566   1.267       .  A
C565       C1554   1.464       .  S
O566       Cr571   2.011       .  S
O567       Cr571   1.969       .  S
O567        C568   1.259       .  A
C568       C1573   1.489       .  S
Cr569       O572   1.778       .  S
Cr570       O572   1.762       .  S
Cr571       O572   1.768       .  S
O573       Cr591   1.990       .  S
O573        C581   1.264       .  A
O574       Cr591   2.012       .  S
O574        C575   1.266       .  A
C575        O576   1.267       .  A
C575       C1525   1.492       .  S
O576       Cr592   1.984       .  S
O577       Cr592   1.996       .  S
O577        C578   1.260       .  A
C578        O579   1.259       .  A
C578       C1541   1.479       .  S
O579       Cr593   1.990       .  S
O580       Cr593   1.986       .  S
O580        C581   1.261       .  A
C581       C1509   1.466       .  S
O582       Cr591   1.999       .  S
O582        C590   1.258       .  A
O583       Cr591   2.000       .  S
O583        C584   1.261       .  A
C584        O585   1.260       .  A
C584       C2485   1.481       .  S
O585       Cr592   1.990       .  S
O586       Cr592   1.989       .  S
O586        C587   1.265       .  A
C587        O588   1.269       .  A
C587       C2245   1.477       .  S
O588       Cr593   2.005       .  S
O589       Cr593   1.952       .  S
O589        C590   1.256       .  A
C590       C2293   1.472       .  S
Cr591       O594   1.785       .  S
Cr592       O594   1.775       .  S
Cr593       O594   1.769       .  S
O595       Cr613   2.016       .  S
O595        C603   1.267       .  A
O596       Cr613   2.018       .  S
O596        C597   1.263       .  A
C597        O598   1.251       .  A
C597       C2325   1.496       .  S
O598       Cr614   1.964       .  S
O599       Cr614   1.988       .  S
O599        C600   1.268       .  A
C600        O601   1.271       .  A
C600        C631   1.468       .  S
O601       Cr615   2.003       .  S
O602       Cr615   1.956       .  S
O602        C603   1.255       .  A
C603       C1698   1.495       .  S
O604       Cr613   1.981       .  S
O604        C612   1.262       .  A
O605       Cr613   2.034       .  S
O605        C606   1.273       .  A
C606        O607   1.263       .  A
C606       C1490   1.471       .  S
O607       Cr614   1.959       .  S
O608       Cr614   1.970       .  S
O608        C609   1.251       .  A
C609        O610   1.256       .  A
C609        C644   1.458       .  S
O610       Cr615   1.992       .  S
O611       Cr615   2.000       .  S
O611        C612   1.265       .  A
C612       C1522   1.500       .  S
Cr613       O616   1.788       .  S
Cr614       O616   1.771       .  S
Cr615       O616   1.784       .  S
O617       Cr635   1.995       .  S
O617        C625   1.263       .  A
O618       Cr635   2.010       .  S
O618        C619   1.262       .  A
C619        O620   1.255       .  A
C619       C1477   1.474       .  S
O620       Cr636   1.970       .  S
O621       Cr636   1.967       .  S
O621        C622   1.264       .  A
C622        O623   1.267       .  A
C622        C653   1.473       .  S
O623       Cr637   2.013       .  S
O624       Cr637   1.999       .  S
O624        C625   1.264       .  A
C625       C1605   1.490   1_455  S
O626       Cr635   2.020       .  S
O626        C634   1.268       .  A
O627       Cr635   1.976       .  S
O627        C628   1.260       .  A
C628        O629   1.261       .  A
C628       C2309   1.471       .  S
O629       Cr636   1.992       .  S
O630       Cr636   1.978       .  S
O630        C631   1.256       .  A
C631        O632   1.259       .  A
O632       Cr637   1.990       .  S
O633       Cr637   1.992       .  S
O633        C634   1.263       .  A
C634       C1717   1.491       .  S
Cr635       O638   1.787       .  S
Cr636       O638   1.776       .  S
Cr637       O638   1.791       .  S
O639       Cr657   2.005       .  S
O639        C647   1.267       .  A
O640       Cr657   2.016       .  S
O640        C641   1.256   1_545  A
C641        O642   1.247       .  A
C641       C1458   1.485       .  S
O642       Cr658   1.972       .  S
O643       Cr658   1.974       .  S
O643        C644   1.268       .  A
C644        O645   1.274       .  A
O645       Cr659   2.019       .  S
O646       Cr659   1.958   1_545  S
O646        C647   1.255       .  A
C647       C1506   1.470       .  S
O648       Cr657   1.972       .  S
O648        C656   1.260       .  A
O649       Cr657   2.049   1_565  S
O649        C650   1.279       .  A
C650        O651   1.262       .  A
C650       C1442   1.475       .  S
O651       Cr658   1.948       .  S
O652       Cr658   1.954       .  S
O652        C653   1.251       .  A
C653        O654   1.258       .  A
O654       Cr659   2.024       .  S
O655       Cr659   1.994   1_545  S
O655        C656   1.263       .  A
C656       C1621   1.492       .  S
Cr657       O660   1.786   1_545  S
Cr658       O660   1.759       .  S
Cr659       O660   1.791       .  S
O661       Cr679   2.026       .  S
O661        C669   1.269       .  A
O662       Cr679   1.995       .  S
O662        C663   1.263       .  A
C663        O664   1.260       .  A
C663       C1410   1.490       .  S
O664       Cr680   1.996       .  S
O665       Cr680   1.988       .  S
O665        C666   1.264       .  A
C666        O667   1.268       .  A
C666       C1845   1.492       .  S
O667       Cr681   1.996       .  S
O668       Cr681   1.962       .  S
O668        C669   1.262       .  A
C669       C1429   1.498       .  S
O670       Cr679   1.989       .  S
O670        C678   1.258       .  A
O671       Cr679   2.016       .  S
O671        C672   1.268       .  A
C672        O673   1.258       .  A
C672       C1474   1.474       .  S
O673       Cr680   1.965       .  S
O674       Cr680   1.985       .  S
O674        C675   1.262       .  A
C675        O676   1.261       .  A
C675       C1445   1.471       .  S
O676       Cr681   1.985       .  S
O677       Cr681   1.995       .  S
O677        C678   1.261       .  A
C678       C1637   1.474       .  S
Cr679       O682   1.777       .  S
Cr680       O682   1.773       .  S
Cr681       O682   1.767       .  S
O683       Cr701   2.024       .  S
O683        C691   1.270       .  A
O684       Cr701   1.991       .  S
O684        C685   1.260       .  A
C685        O686   1.261       .  A
C685       C1378   1.478       .  S
O686       Cr702   2.002       .  S
O687       Cr702   1.990       .  S
O687        C688   1.261       .  A
C688        O689   1.266       .  A
C688       C2725   1.494       .  S
O689       Cr703   1.991       .  S
O690       Cr703   1.960       .  S
O690        C691   1.258       .  A
C691       C1394   1.489       .  S
O692       Cr701   1.976       .  S
O692        C700   1.256       .  A
O693       Cr701   2.032       .  S
O693        C694   1.271       .  A
C694        O695   1.260       .  A
C694       C1733   1.489       .  S
O695       Cr702   1.964       .  S
O696       Cr702   1.997       .  S
O696        C697   1.267       .  A
C697        O698   1.263       .  A
C697       C1749   1.489       .  S
O698       Cr703   1.986       .  S
O699       Cr703   1.999       .  S
O699        C700   1.260       .  A
C700       C1794   1.472   1_556  S
Cr701       O704   1.777       .  S
Cr702       O704   1.770       .  S
Cr703       O704   1.769       .  S
O705       Cr723   2.027       .  S
O705        C713   1.269       .  A
O706       Cr723   1.992       .  S
O706        C707   1.265       .  A
C707        O708   1.268       .  A
C707       C1346   1.493       .  S
O708       Cr724   2.008       .  S
O709       Cr724   1.970       .  S
O709        C710   1.258       .  A
C710        O711   1.268       .  A
C710       C1685   1.469       .  S
O711       Cr725   2.003       .  S
O712       Cr725   1.983       .  S
O712        C713   1.263       .  A
C713       C1362   1.497   1_655  S
O714       Cr723   2.002       .  S
O714        C722   1.263       .  A
O715       Cr723   2.017       .  S
O715        C716   1.264       .  A
C716        O717   1.257       .  A
C716       C2613   1.478       .  S
O717       Cr724   1.961       .  S
O718       Cr724   2.002       .  S
O718        C719   1.264       .  A
C719        O720   1.259       .  A
C719       C2658   1.467       .  S
O720       Cr725   1.977       .  S
O721       Cr725   2.002       .  S
O721        C722   1.265       .  A
C722       C2965   1.492       .  S
Cr723       O726   1.776       .  S
Cr724       O726   1.774       .  S
Cr725       O726   1.766       .  S
O727       Cr745   2.014       .  S
O727        C735   1.265       .  A
O728       Cr745   1.998       .  S
O728        C729   1.262       .  A
C729        O730   1.261       .  A
C729       C2693   1.476       .  S
O730       Cr746   1.984       .  S
O731       Cr746   1.999       .  S
O731        C732   1.267       .  A
C732        O733   1.256       .  A
C732        C785   1.463       .  S
O733       Cr747   1.981       .  S
O734       Cr747   1.965       .  S
O734        C735   1.256       .  A
C735       C1397   1.471       .  S
O736       Cr745   1.995   1_554  S
O736        C744   1.264       .  A
O737       Cr745   2.028       .  S
O737        C738   1.267       .  A
C738        O739   1.259       .  A
C738       C1829   1.484       .  S
O739       Cr746   1.979       .  S
O740       Cr746   1.967       .  S
O740        C741   1.257       .  A
C741        O742   1.268       .  A
C741        C754   1.456       .  S
O742       Cr747   1.997       .  S
O743       Cr747   1.995       .  S
O743        C744   1.262   1_556  A
C744       C1413   1.474       .  S
Cr745       O748   1.790       .  S
Cr746       O748   1.767       .  S
Cr747       O748   1.785       .  S
O749       Cr767   2.025       .  S
O749        C757   1.269       .  A
O750       Cr767   1.992       .  S
O750        C751   1.263       .  A
C751        O752   1.256       .  A
C751       C1813   1.476       .  S
O752       Cr768   1.975       .  S
O753       Cr768   1.979       .  S
O753        C754   1.258       .  A
C754        O755   1.253       .  A
O755       Cr769   1.979       .  S
O756       Cr769   1.981       .  S
O756        C757   1.259       .  A
C757       C1426   1.486       .  S
O758       Cr767   2.002       .  S
O758        C766   1.265       .  A
O759       Cr767   2.020       .  S
O759        C760   1.267       .  A
C760        O761   1.257       .  A
C760       C1669   1.484       .  S
O761       Cr768   1.967       .  S
O762       Cr768   1.963       .  S
O762        C763   1.256       .  A
C763        O764   1.272       .  A
C763        C776   1.463       .  S
O764       Cr769   2.009       .  S
O765       Cr769   1.996       .  S
O765        C766   1.263       .  A
C766       C1349   1.501   1_455  S
Cr767       O770   1.789       .  S
Cr768       O770   1.778       .  S
Cr769       O770   1.793       .  S
O771       Cr789   2.025       .  S
O771        C779   1.268       .  A
O772       Cr789   2.000       .  S
O772        C773   1.261       .  A
C773        O774   1.255       .  A
C773       C1653   1.470       .  S
O774       Cr790   1.971       .  S
O775       Cr790   1.993       .  S
O775        C776   1.266       .  A
C776        O777   1.260       .  A
O777       Cr791   1.991       .  S
O778       Cr791   1.978       .  S
O778        C779   1.260       .  A
C779       C1365   1.499       .  S
O780       Cr789   1.996       .  S
O780        C788   1.265       .  A
O781       Cr789   2.024       .  S
O781        C782   1.267       .  A
C782        O783   1.260       .  A
C782       C2709   1.479       .  S
O783       Cr790   1.969       .  S
O784       Cr790   1.964       .  S
O784        C785   1.254       .  A
C785        O786   1.269       .  A
O786       Cr791   2.011       .  S
O787       Cr791   2.001       .  S
O787        C788   1.263       .  A
C788       C1381   1.485       .  S
Cr789       O792   1.785       .  S
Cr790       O792   1.768       .  S
Cr791       O792   1.784       .  S
O793       Cr811   2.049       .  S
O793        C801   1.279       .  A
O794       Cr811   1.966       .  S
O794        C795   1.255       .  A
C795        O796   1.262       .  A
C795       C1333   1.491       .  S
O796       Cr812   2.008       .  S
O797       Cr812   1.959       .  S
O797        C798   1.257       .  A
C798        O799   1.264       .  A
C798       C2533   1.479       .  S
O799       Cr813   2.017       .  S
O800       Cr813   1.944       .  S
O800        C801   1.257       .  A
C801       C1314   1.482       .  S
O802       Cr811   1.965       .  S
O802        C810   1.249       .  A
O803       Cr811   2.039       .  S
O803        C804   1.275       .  A
C804        O805   1.254       .  A
C804       C1298   1.488   1_554  S
O805       Cr812   1.928       .  S
O806       Cr812   2.019       .  S
O806        C807   1.267       .  A
C807        O808   1.258       .  A
C807       C1266   1.464       .  S
O808       Cr813   1.956       .  S
O809       Cr813   2.015       .  S
O809        C810   1.262       .  A
C810       C1282   1.500       .  S
Cr811       O814   1.778       .  S
Cr812       O814   1.774       .  S
Cr813       O814   1.780       .  S
O815       Cr833   1.989       .  S
O815        C823   1.265       .  A
O816       Cr833   2.019   1_455  S
O816        C817   1.270   1_455  A
C817        O818   1.263       .  A
C817       C1234   1.477   1_655  S
O818       Cr834   1.967       .  S
O819       Cr834   1.994       .  S
O819        C820   1.263       .  A
C820        O821   1.260       .  A
C820       C1250   1.477       .  S
O821       Cr835   1.982       .  S
O822       Cr835   2.003       .  S
O822        C823   1.265       .  A
C823       C1218   1.480       .  S
O824       Cr833   2.014       .  S
O824        C832   1.263       .  A
O825       Cr833   2.010   1_455  S
O825        C826   1.264       .  A
C826        O827   1.253       .  A
C826       C2117   1.491       .  S
O827       Cr834   1.979   1_455  S
O828       Cr834   1.979       .  S
O828        C829   1.261       .  A
C829        O830   1.266       .  A
C829       C1925   1.469       .  S
O830       Cr835   2.006       .  S
O831       Cr835   1.960       .  S
O831        C832   1.257       .  A
C832       C1957   1.479       .  S
Cr833       O836   1.774       .  S
Cr834       O836   1.758       .  S
Cr835       O836   1.765       .  S
O837       Cr855   1.987       .  S
O837        C845   1.262       .  A
O838       Cr855   2.022       .  S
O838        C839   1.268       .  A
C839        O840   1.257       .  A
C839       C1202   1.478       .  S
O840       Cr856   1.960       .  S
O841       Cr856   1.970       .  S
O841        C842   1.265       .  A
C842        O843   1.265       .  A
C842       C2162   1.484       .  S
O843       Cr857   1.992       .  S
O844       Cr857   1.992       .  S
O844        C845   1.257       .  A
C845       C1186   1.494       .  S
O846       Cr855   2.016       .  S
O846        C854   1.270       .  A
O847       Cr855   1.982       .  S
O847        C848   1.257       .  A
C848        O849   1.263       .  A
C848       C2389   1.471       .  S
O849       Cr856   1.996       .  S
O850       Cr856   1.990       .  S
O850        C851   1.265       .  A
C851        O852   1.256       .  A
C851       C2277   1.484       .  S
O852       Cr857   1.979       .  S
O853       Cr857   1.963       .  S
O853        C854   1.258       .  A
C854       C2229   1.489       .  S
Cr855       O858   1.781       .  S
Cr856       O858   1.764       .  S
Cr857       O858   1.773       .  S
O859       Cr877   2.000       .  S
O859        C867   1.267       .  A
O860       Cr877   2.036       .  S
O860        C861   1.269       .  A
C861        O862   1.259       .  A
C861       C2517   1.477       .  S
O862       Cr878   1.960       .  S
O863       Cr878   1.991       .  S
O863        C864   1.262       .  A
C864        O865   1.265       .  A
C864        C895   1.468       .  S
O865       Cr879   1.996       .  S
O866       Cr879   2.002       .  S
O866        C867   1.263       .  A
C867       C1317   1.479       .  S
O868       Cr877   2.023       .  S
O868        C876   1.266       .  A
O869       Cr877   2.011       .  S
O869        C870   1.266       .  A
C870        O871   1.259       .  A
C870       C2133   1.497       .  S
O871       Cr878   1.988       .  S
O872       Cr878   1.989       .  S
O872        C873   1.260       .  A
C873        O874   1.263       .  A
C873        C908   1.458       .  S
O874       Cr879   1.975       .  S
O875       Cr879   1.963       .  S
O875        C876   1.255       .  A
C876       C1205   1.483       .  S
Cr877       O880   1.778       .  S
Cr878       O880   1.765       .  S
Cr879       O880   1.773       .  S
O881       Cr899   1.991   1_556  S
O881        C889   1.265       .  A
O882       Cr899   2.055       .  S
O882        C883   1.274       .  A
C883        O884   1.254       .  A
C883       C1170   1.494       .  S
O884       Cr900   1.958       .  S
O885       Cr900   1.955       .  S
O885        C886   1.258       .  A
C886        O887   1.264       .  A
C886        C917   1.471       .  S
O887       Cr901   2.023       .  S
O888       Cr901   1.997   1_556  S
O888        C889   1.263       .  A
C889       C1221   1.470       .  S
O890       Cr899   2.019       .  S
O890        C898   1.270       .  A
O891       Cr899   2.011       .  S
O891        C892   1.261       .  A
C892        O893   1.257       .  A
C892       C2501   1.483       .  S
O893       Cr900   1.976       .  S
O894       Cr900   1.984       .  S
O894        C895   1.265       .  A
C895        O896   1.268       .  A
O896       Cr901   2.016       .  S
O897       Cr901   1.964       .  S
O897        C898   1.259       .  A
C898       C1330   1.476       .  S
Cr899       O902   1.781       .  S
Cr900       O902   1.746       .  S
Cr901       O902   1.779       .  S
O903       Cr921   2.024   1_455  S
O903        C911   1.270       .  A
O904       Cr921   2.014       .  S
O904        C905   1.265       .  A
C905        O906   1.251       .  A
C905       C2149   1.499       .  S
O906       Cr922   1.978       .  S
O907       Cr922   1.989       .  S
O907        C908   1.268       .  A
C908        O909   1.268       .  A
O909       Cr923   1.983       .  S
O910       Cr923   1.946   1_455  S
O910        C911   1.250       .  A
C911       C1189   1.497       .  S
O912       Cr921   1.970   1_455  S
O912        C920   1.260       .  A
O913       Cr921   2.029       .  S
O913        C914   1.273       .  A
C914        O915   1.259       .  A
C914       C1157   1.461       .  S
O915       Cr922   1.951       .  S
O916       Cr922   1.952       .  S
O916        C917   1.253       .  A
C917        O918   1.259       .  A
O918       Cr923   2.012       .  S
O919       Cr923   1.989       .  S
O919        C920   1.261   1_655  A
C920       C1237   1.490       .  S
Cr921       O924   1.785       .  S
Cr922       O924   1.763       .  S
Cr923       O924   1.782       .  S
O925       Cr943   2.024       .  S
O925        C933   1.270       .  A
O926       Cr943   2.004       .  S
O926        C927   1.264       .  A
C927        O928   1.257       .  A
C927       C1125   1.494       .  S
O928       Cr944   1.979       .  S
O929       Cr944   1.996       .  S
O929        C930   1.266       .  A
C930        O931   1.267       .  A
C930       C1586   1.491       .  S
O931       Cr945   1.984       .  S
O932       Cr945   1.978       .  S
O932        C933   1.265       .  A
C933       C1138   1.498       .  S
O934       Cr943   2.003       .  S
O934        C942   1.261       .  A
O935       Cr943   2.027       .  S
O935        C936   1.270       .  A
C936        O937   1.262       .  A
C936       C1173   1.497       .  S
O937       Cr944   1.967       .  S
O938       Cr944   1.980       .  S
O938        C939   1.255       .  A
C939        O940   1.265       .  A
C939       C1154   1.485       .  S
O940       Cr945   2.003       .  S
O941       Cr945   1.986       .  S
O941        C942   1.260       .  A
C942       C1253   1.482   1_554  S
Cr943       O946   1.776       .  S
Cr944       O946   1.769       .  S
Cr945       O946   1.759       .  S
O947       Cr965   2.027   1_545  S
O947        C955   1.270       .  A
O948       Cr965   2.004       .  S
O948        C949   1.262       .  A
C949        O950   1.260       .  A
C949       C1090   1.503       .  S
O950       Cr966   1.991       .  S
O951       Cr966   1.978       .  S
O951        C952   1.261       .  A
C952        O953   1.268       .  A
C952       C2821   1.475       .  S
O953       Cr967   1.999       .  S
O954       Cr967   1.959       .  S
O954        C955   1.260   1_565  A
C955       C1106   1.480       .  S
O956       Cr965   1.988   1_545  S
O956        C964   1.259       .  A
O957       Cr965   2.033       .  S
O957        C958   1.273       .  A
C958        O959   1.254       .  A
C958       C1461   1.501       .  S
O959       Cr966   1.949       .  S
O960       Cr966   1.986       .  S
O960        C961   1.261       .  A
C961        O962   1.264       .  A
C961       C1493   1.479       .  S
O962       Cr967   1.989       .  S
O963       Cr967   2.006   1_545  S
O963        C964   1.264       .  A
C964       C1538   1.482       .  S
Cr965       O968   1.776       .  S
Cr966       O968   1.765       .  S
Cr967       O968   1.767       .  S
O969       Cr987   2.020       .  S
O969        C977   1.267       .  A
O970       Cr987   1.976       .  S
O970        C971   1.264       .  A
C971        O972   1.263       .  A
C971       C1058   1.488       .  S
O972       Cr988   2.003       .  S
O973       Cr988   1.978       .  S
O973        C974   1.260       .  A
C974        O975   1.263       .  A
C974       C1301   1.466       .  S
O975       Cr989   1.989       .  S
O976       Cr989   1.990       .  S
O976        C977   1.264       .  A
C977       C1074   1.495       .  S
O978       Cr987   1.997       .  S
O978        C986   1.262       .  A
O979       Cr987   2.006       .  S
O979        C980   1.262       .  A
C980        O981   1.257       .  A
C980       C2645   1.475       .  S
O981       Cr988   1.972       .  S
O982       Cr988   1.995       .  S
O982        C983   1.261       .  A
C983        O984   1.257       .  A
C983       C2597   1.465       .  S
O984       Cr989   1.970       .  S
O985       Cr989   2.000       .  S
O985        C986   1.264       .  A
C986       C2770   1.482       .  S
Cr987       O990   1.783       .  S
Cr988       O990   1.784       .  S
Cr989       O990   1.768       .  S
O991      Cr1009   2.019       .  S
O991        C999   1.265       .  A
O992      Cr1009   1.984       .  S
O992        C993   1.260       .  A
C993        O994   1.259       .  A
C993       C1557   1.460       .  S
O994      Cr1010   1.977       .  S
O995      Cr1010   1.991       .  S
O995        C996   1.262       .  A
C996        O997   1.255       .  A
C996       C1049   1.462       .  S
O997      Cr1011   1.982       .  S
O998      Cr1011   1.986       .  S
O998        C999   1.260       .  A
C999       C1141   1.494       .  S
O1000     Cr1009   1.998       .  S
O1000      C1008   1.265   1_554  A
O1001     Cr1009   2.014       .  S
O1001      C1002   1.263       .  A
C1002      O1003   1.256       .  A
C1002      C1285   1.476       .  S
O1003     Cr1010   1.970       .  S
O1004     Cr1010   1.976       .  S
O1004      C1005   1.258       .  A
C1005      O1006   1.264       .  A
C1005      C1018   1.459       .  S
O1006     Cr1011   1.983       .  S
O1007     Cr1011   2.009       .  S
O1007      C1008   1.265   1_554  A
C1008      C1061   1.487       .  S
Cr1009     O1012   1.788       .  S
Cr1010     O1012   1.784       .  S
Cr1011     O1012   1.786       .  S
O1013     Cr1031   2.026       .  S
O1013      C1021   1.269       .  A
O1014     Cr1031   2.007       .  S
O1014      C1015   1.265       .  A
C1015      O1016   1.259       .  A
C1015      C1269   1.486       .  S
O1016     Cr1032   1.964       .  S
O1017     Cr1032   1.985       .  S
O1017      C1018   1.264       .  A
C1018      O1019   1.258       .  A
O1019     Cr1033   1.985       .  S
O1020     Cr1033   1.973       .  S
O1020      C1021   1.260       .  A
C1021      C1077   1.496       .  S
O1022     Cr1031   2.000       .  S
O1022      C1030   1.264       .  A
O1023     Cr1031   2.023       .  S
O1023      C1024   1.266       .  A
C1024      O1025   1.256       .  A
C1024      C2805   1.476       .  S
O1025     Cr1032   1.961       .  S
O1026     Cr1032   1.956       .  S
O1026      C1027   1.253       .  A
C1027      O1028   1.266       .  A
C1027      C1040   1.447       .  S
O1028     Cr1033   1.996       .  S
O1029     Cr1033   1.995       .  S
O1029      C1030   1.262       .  A
C1030      C1093   1.494       .  S
Cr1031     O1034   1.787       .  S
Cr1032     O1034   1.769       .  S
Cr1033     O1034   1.783       .  S
O1035     Cr1053   2.034       .  S
O1035      C1043   1.273       .  A
O1036     Cr1053   1.987   1_565  S
O1036      C1037   1.260       .  A
C1037      O1038   1.258       .  A
C1037      C2786   1.463       .  S
O1038     Cr1054   1.981       .  S
O1039     Cr1054   1.981       .  S
O1039      C1040   1.261       .  A
C1040      O1041   1.257       .  A
O1041     Cr1055   1.981       .  S
O1042     Cr1055   1.956       .  S
O1042      C1043   1.257   1_565  A
C1043      C1109   1.485       .  S
O1044     Cr1053   1.997       .  S
O1044      C1052   1.263       .  A
O1045     Cr1053   2.042   1_565  S
O1045      C1046   1.271       .  A
C1046      O1047   1.254       .  A
C1046      C1570   1.485       .  S
O1047     Cr1054   1.953       .  S
O1048     Cr1054   1.975       .  S
O1048      C1049   1.259       .  A
C1049      O1050   1.269       .  A
O1050     Cr1055   2.004       .  S
O1051     Cr1055   1.981   1_545  S
O1051      C1052   1.259       .  A
C1052      C1122   1.484       .  S
Cr1053     O1056   1.784   1_545  S
Cr1054     O1056   1.759       .  S
Cr1055     O1056   1.780       .  S
C1057      C1058   1.400       .  A
C1057      C1062   1.395       .  A
C1057      H1064   1.083       .  S
C1058      C1059   1.419       .  A
C1059      C1060   1.415       .  A
C1059      C1066   1.505       .  S
C1060      C1061   1.406       .  A
C1060      H1065   1.084       .  S
C1061      C1062   1.414       .  A
C1062      C1063   1.500   1_556  S
C1063      H1067   1.112       .  S
C1063      H1068   1.107       .  S
C1063      H1069   1.110       .  S
C1066      H1070   1.110       .  S
C1066      H1071   1.109       .  S
C1066      H1072   1.111       .  S
C1073      C1074   1.406   1_554  A
C1073      C1078   1.411       .  A
C1073      H1080   1.084   1_554  S
C1074      C1075   1.419       .  A
C1075      C1076   1.407   1_556  A
C1075      C1082   1.506       .  S
C1076      C1077   1.405       .  A
C1076      H1081   1.084       .  S
C1077      C1078   1.417       .  A
C1078      C1079   1.504       .  S
C1079      H1083   1.111       .  S
C1079      H1084   1.110       .  S
C1079      H1085   1.102       .  S
C1082      H1086   1.110       .  S
C1082      H1087   1.101       .  S
C1082      H1088   1.111       .  S
C1089      C1090   1.413       .  A
C1089      C1094   1.408       .  A
C1089      H1096   1.083       .  S
C1090      C1091   1.419       .  A
C1091      C1092   1.409       .  A
C1091      C1098   1.508       .  S
C1092      C1093   1.409       .  A
C1092      H1097   1.084       .  S
C1093      C1094   1.413       .  A
C1094      C1095   1.507       .  S
C1095      H1099   1.111       .  S
C1095      H1100   1.109       .  S
C1095      H1101   1.111       .  S
C1098      H1102   1.107       .  S
C1098      H1103   1.110       .  S
C1098      H1104   1.111       .  S
C1105      C1106   1.398   1_565  A
C1105      C1110   1.392       .  A
C1105      H1112   1.086       .  S
C1106      C1107   1.415       .  A
C1107      C1108   1.417       .  A
C1107      C1114   1.504       .  S
C1108      C1109   1.408       .  A
C1108      H1113   1.084       .  S
C1109      C1110   1.418   1_545  A
C1110      C1111   1.507       .  S
C1111      H1115   1.111       .  S
C1111      H1116   1.105       .  S
C1111      H1117   1.109       .  S
C1114      H1118   1.110       .  S
C1114      H1119   1.110       .  S
C1114      H1120   1.111       .  S
C1121      C1122   1.407       .  A
C1121      C1126   1.401       .  A
C1121      H1128   1.084       .  S
C1122      C1123   1.410       .  A
C1123      C1124   1.405       .  A
C1123      C1130   1.507       .  S
C1124      C1125   1.414       .  A
C1124      H1129   1.083       .  S
C1125      C1126   1.415       .  A
C1126      C1127   1.503       .  S
C1127      H1131   1.111       .  S
C1127      H1132   1.108       .  S
C1127      H1133   1.110       .  S
C1130      H1134   1.110       .  S
C1130      H1135   1.110       .  S
C1130      H1136   1.111       .  S
C1137      C1138   1.405       .  A
C1137      C1142   1.404   1_545  A
C1137      H1144   1.085       .  S
C1138      C1139   1.419       .  A
C1139      C1140   1.412       .  A
C1139      C1146   1.508   1_554  S
C1140      C1141   1.407   1_545  A
C1140      H1145   1.084       .  S
C1141      C1142   1.420       .  A
C1142      C1143   1.506       .  S
C1143      H1147   1.111   1_554  S
C1143      H1148   1.101       .  S
C1143      H1149   1.110       .  S
C1146      H1150   1.110       .  S
C1146      H1151   1.105   1_556  S
C1146      H1152   1.111       .  S
C1153      C1154   1.409       .  A
C1153      C1158   1.409       .  A
C1153      H1160   1.082       .  S
C1154      C1155   1.426       .  A
C1155      C1156   1.392       .  A
C1155      C1162   1.513       .  S
C1156      C1157   1.393       .  A
C1156      H1161   1.085       .  S
C1157      C1158   1.406       .  A
C1158      C1159   1.503       .  S
C1159      H1163   1.109       .  S
C1159      H1164   1.110       .  S
C1159      H1165   1.110       .  S
C1162      H1166   1.110       .  S
C1162      H1167   1.108       .  S
C1162      H1168   1.111       .  S
C1169      C1170   1.407       .  A
C1169      C1174   1.416       .  A
C1169      H1176   1.084       .  S
C1170      C1171   1.422       .  A
C1171      C1172   1.399       .  A
C1171      C1178   1.512       .  S
C1172      C1173   1.402       .  A
C1172      H1177   1.084       .  S
C1173      C1174   1.420       .  A
C1174      C1175   1.504       .  S
C1175      H1179   1.111   1_554  S
C1175      H1180   1.110       .  S
C1175      H1181   1.104       .  S
C1178      H1182   1.111       .  S
C1178      H1183   1.109       .  S
C1178      H1184   1.111       .  S
C1185      C1186   1.401       .  A
C1185      C1190   1.401       .  A
C1185      H1192   1.084       .  S
C1186      C1187   1.423       .  A
C1187      C1188   1.408       .  A
C1187      C1194   1.508       .  S
C1188      C1189   1.404       .  A
C1188      H1193   1.084       .  S
C1189      C1190   1.427       .  A
C1190      C1191   1.512       .  S
C1191      H1195   1.111       .  S
C1191      H1196   1.109       .  S
C1191      H1197   1.110       .  S
C1194      H1198   1.107       .  S
C1194      H1199   1.110       .  S
C1194      H1200   1.111       .  S
C1201      C1202   1.401       .  A
C1201      C1206   1.397   1_455  A
C1201      H1208   1.085       .  S
C1202      C1203   1.411       .  A
C1203      C1204   1.414   1_455  A
C1203      C1210   1.504       .  S
C1204      C1205   1.408       .  A
C1204      H1209   1.084       .  S
C1205      C1206   1.417       .  A
C1206      C1207   1.512       .  S
C1207      H1211   1.111       .  S
C1207      H1212   1.108       .  S
C1207      H1213   1.110       .  S
C1210      H1214   1.110       .  S
C1210      H1215   1.110       .  S
C1210      H1216   1.111       .  S
C1217      C1218   1.407       .  A
C1217      C1222   1.409       .  A
C1217      H1224   1.084       .  S
C1218      C1219   1.416       .  A
C1219      C1220   1.400       .  A
C1219      C1226   1.506       .  S
C1220      C1221   1.398       .  A
C1220      H1225   1.085   1_556  S
C1221      C1222   1.409       .  A
C1222      C1223   1.504       .  S
C1223      H1227   1.111       .  S
C1223      H1228   1.111       .  S
C1223      H1229   1.110       .  S
C1226      H1230   1.105       .  S
C1226      H1231   1.109       .  S
C1226      H1232   1.111   1_556  S
C1233      C1234   1.402       .  A
C1233      C1238   1.403   1_556  A
C1233      H1240   1.084       .  S
C1234      C1235   1.412   1_556  A
C1235      C1236   1.400       .  A
C1235      C1242   1.508       .  S
C1236      C1237   1.408       .  A
C1236      H1241   1.083       .  S
C1237      C1238   1.421       .  A
C1238      C1239   1.509       .  S
C1239      H1243   1.111   1_554  S
C1239      H1244   1.110       .  S
C1239      H1245   1.109   1_455  S
C1242      H1246   1.110   1_554  S
C1242      H1247   1.106   1_454  S
C1242      H1248   1.111       .  S
C1249      C1250   1.408       .  A
C1249      C1254   1.411       .  A
C1249      H1256   1.084       .  S
C1250      C1251   1.411       .  A
C1251      C1252   1.395       .  A
C1251      C1258   1.509       .  S
C1252      C1253   1.403       .  A
C1252      H1257   1.080   1_556  S
C1253      C1254   1.413       .  A
C1254      C1255   1.503       .  S
C1255      H1259   1.111       .  S
C1255      H1260   1.105       .  S
C1255      H1261   1.110       .  S
C1258      H1262   1.111       .  S
C1258      H1263   1.108       .  S
C1258      H1264   1.107   1_556  S
C1265      C1266   1.402       .  A
C1265      C1270   1.407       .  A
C1265      H1272   1.084       .  S
C1266      C1267   1.408       .  A
C1267      C1268   1.391       .  A
C1267      C1274   1.511       .  S
C1268      C1269   1.409       .  A
C1268      H1273   1.085       .  S
C1269      C1270   1.415       .  A
C1270      C1271   1.499       .  S
C1271      H1275   1.110       .  S
C1271      H1276   1.111       .  S
C1271      H1277   1.109       .  S
C1274      H1278   1.109       .  S
C1274      H1279   1.110       .  S
C1274      H1280   1.111       .  S
C1281      C1282   1.407       .  A
C1281      C1286   1.411       .  A
C1281      H1288   1.084       .  S
C1282      C1283   1.428       .  A
C1283      C1284   1.402       .  A
C1283      C1290   1.503       .  S
C1284      C1285   1.392       .  A
C1284      H1289   1.085       .  S
C1285      C1286   1.413       .  A
C1286      C1287   1.506       .  S
C1287      H1291   1.111       .  S
C1287      H1292   1.109       .  S
C1287      H1293   1.111       .  S
C1290      H1294   1.104       .  S
C1290      H1295   1.109       .  S
C1290      H1296   1.111   1_554  S
C1297      C1298   1.412       .  A
C1297      C1302   1.393       .  A
C1297      H1304   1.083   1_556  S
C1298      C1299   1.412       .  A
C1299      C1300   1.412       .  A
C1299      C1306   1.503       .  S
C1300      C1301   1.408       .  A
C1300      H1305   1.084       .  S
C1301      C1302   1.403       .  A
C1302      C1303   1.509       .  S
C1303      H1307   1.110   1_556  S
C1303      H1308   1.109       .  S
C1303      H1309   1.111       .  S
C1306      H1310   1.110       .  S
C1306      H1311   1.110       .  S
C1306      H1312   1.111       .  S
C1313      C1314   1.406       .  A
C1313      C1318   1.416       .  A
C1313      H1320   1.084       .  S
C1314      C1315   1.419       .  A
C1315      C1316   1.398       .  A
C1315      C1322   1.508       .  S
C1316      C1317   1.397       .  A
C1316      H1321   1.086       .  S
C1317      C1318   1.415       .  A
C1318      C1319   1.504       .  S
C1319      H1323   1.111       .  S
C1319      H1324   1.110       .  S
C1319      H1325   1.110       .  S
C1322      H1326   1.104       .  S
C1322      H1327   1.111       .  S
C1322      H1328   1.111       .  S
C1329      C1330   1.400       .  A
C1329      C1334   1.406       .  A
C1329      H1336   1.079       .  S
C1330      C1331   1.409       .  A
C1331      C1332   1.405       .  A
C1331      C1338   1.507   1_554  S
C1332      C1333   1.409       .  A
C1332      H1337   1.084   1_554  S
C1333      C1334   1.419       .  A
C1334      C1335   1.508       .  S
C1335      H1339   1.110       .  S
C1335      H1340   1.110       .  S
C1335      H1341   1.110       .  S
C1338      H1342   1.111       .  S
C1338      H1343   1.109   1_556  S
C1338      H1344   1.111       .  S
C1345      C1346   1.409       .  A
C1345      C1350   1.408       .  A
C1345      H1352   1.084       .  S
C1346      C1347   1.415       .  A
C1347      C1348   1.404       .  A
C1347      C1354   1.506       .  S
C1348      C1349   1.411       .  A
C1348      H1353   1.084       .  S
C1349      C1350   1.417       .  A
C1350      C1351   1.504       .  S
C1351      H1355   1.111       .  S
C1351      H1356   1.100       .  S
C1351      H1357   1.110       .  S
C1354      H1358   1.111       .  S
C1354      H1359   1.107       .  S
C1354      H1360   1.109       .  S
C1361      C1362   1.404       .  A
C1361      C1366   1.410       .  A
C1361      H1368   1.084       .  S
C1362      C1363   1.416       .  A
C1363      C1364   1.409       .  A
C1363      C1370   1.503   1_455  S
C1364      C1365   1.407       .  A
C1364      H1369   1.084       .  S
C1365      C1366   1.420       .  A
C1366      C1367   1.503       .  S
C1367      H1371   1.111       .  S
C1367      H1372   1.110       .  S
C1367      H1373   1.101       .  S
C1370      H1374   1.110       .  S
C1370      H1375   1.104       .  S
C1370      H1376   1.111       .  S
C1377      C1378   1.400       .  A
C1377      C1382   1.402       .  A
C1377      H1384   1.082       .  S
C1378      C1379   1.410       .  A
C1379      C1380   1.412       .  A
C1379      C1386   1.504       .  S
C1380      C1381   1.409       .  A
C1380      H1385   1.084       .  S
C1381      C1382   1.415       .  A
C1382      C1383   1.508       .  S
C1383      H1387   1.111       .  S
C1383      H1388   1.109       .  S
C1383      H1389   1.106       .  S
C1386      H1390   1.111       .  S
C1386      H1391   1.110       .  S
C1386      H1392   1.111       .  S
C1393      C1394   1.411       .  A
C1393      C1398   1.411   1_556  A
C1393      H1400   1.084   1_556  S
C1394      C1395   1.422       .  A
C1395      C1396   1.397       .  A
C1395      C1402   1.512       .  S
C1396      C1397   1.397       .  A
C1396      H1401   1.084       .  S
C1397      C1398   1.407   1_556  A
C1398      C1399   1.504       .  S
C1399      H1403   1.111       .  S
C1399      H1404   1.110       .  S
C1399      H1405   1.111       .  S
C1402      H1406   1.108       .  S
C1402      H1407   1.110       .  S
C1402      H1408   1.111       .  S
C1409      C1410   1.411       .  A
C1409      C1414   1.411       .  A
C1409      H1416   1.084       .  S
C1410      C1411   1.416       .  A
C1411      C1412   1.400       .  A
C1411      C1418   1.501       .  S
C1412      C1413   1.398       .  A
C1412      H1417   1.083   1_554  S
C1413      C1414   1.408       .  A
C1414      C1415   1.504       .  S
C1415      H1419   1.111       .  S
C1415      H1420   1.110       .  S
C1415      H1421   1.111       .  S
C1418      H1422   1.109       .  S
C1418      H1423   1.109       .  S
C1418      H1424   1.110   1_554  S
C1425      C1426   1.406       .  A
C1425      C1430   1.419   1_556  A
C1425      H1432   1.084       .  S
C1426      C1427   1.411       .  A
C1427      C1428   1.392       .  A
C1427      C1434   1.500       .  S
C1428      C1429   1.403   1_556  A
C1428      H1433   1.085   1_556  S
C1429      C1430   1.423       .  A
C1430      C1431   1.505   1_455  S
C1431      H1435   1.111       .  S
C1431      H1436   1.110       .  S
C1431      H1437   1.109   1_655  S
C1434      H1438   1.108       .  S
C1434      H1439   1.103       .  S
C1434      H1440   1.111       .  S
C1441      C1442   1.404       .  A
C1441      C1446   1.408       .  A
C1441      H1448   1.076       .  S
C1442      C1443   1.415       .  A
C1443      C1444   1.390       .  A
C1443      C1450   1.510       .  S
C1444      C1445   1.400       .  A
C1444      H1449   1.085       .  S
C1445      C1446   1.412       .  A
C1446      C1447   1.506       .  S
C1447      H1451   1.111       .  S
C1447      H1452   1.110       .  S
C1447      H1453   1.110       .  S
C1450      H1454   1.110       .  S
C1450      H1455   1.105       .  S
C1450      H1456   1.111       .  S
C1457      C1458   1.398       .  A
C1457      C1462   1.393       .  A
C1457      H1464   1.085       .  S
C1458      C1459   1.412       .  A
C1459      C1460   1.418       .  A
C1459      C1466   1.503   1_565  S
C1460      C1461   1.414       .  A
C1460      H1465   1.083   1_565  S
C1461      C1462   1.425       .  A
C1462      C1463   1.510       .  S
C1463      H1467   1.111       .  S
C1463      H1468   1.105       .  S
C1463      H1469   1.110       .  S
C1466      H1470   1.110       .  S
C1466      H1471   1.111       .  S
C1466      H1472   1.111       .  S
C1473      C1474   1.406       .  A
C1473      C1478   1.406       .  A
C1473      H1480   1.082       .  S
C1474      C1475   1.409       .  A
C1475      C1476   1.405       .  A
C1475      C1482   1.506       .  S
C1476      C1477   1.404       .  A
C1476      H1481   1.084       .  S
C1477      C1478   1.410       .  A
C1478      C1479   1.506       .  S
C1479      H1483   1.111       .  S
C1479      H1484   1.111       .  S
C1479      H1485   1.110       .  S
C1482      H1486   1.110       .  S
C1482      H1487   1.111       .  S
C1482      H1488   1.111       .  S
C1489      C1490   1.401       .  A
C1489      C1494   1.405       .  A
C1489      H1496   1.070       .  S
C1490      C1491   1.407       .  A
C1491      C1492   1.393       .  A
C1491      C1498   1.510       .  S
C1492      C1493   1.408       .  A
C1492      H1497   1.084       .  S
C1493      C1494   1.413       .  A
C1494      C1495   1.507       .  S
C1495      H1499   1.111       .  S
C1495      H1500   1.110       .  S
C1495      H1501   1.110       .  S
C1498      H1502   1.109       .  S
C1498      H1503   1.110       .  S
C1498      H1504   1.111       .  S
C1505      C1506   1.406       .  A
C1505      C1510   1.410       .  A
C1505      H1512   1.084       .  S
C1506      C1507   1.412       .  A
C1507      C1508   1.395       .  A
C1507      C1514   1.507       .  S
C1508      C1509   1.398       .  A
C1508      H1513   1.084       .  S
C1509      C1510   1.409       .  A
C1510      C1511   1.504       .  S
C1511      H1515   1.111       .  S
C1511      H1516   1.111       .  S
C1511      H1517   1.110       .  S
C1514      H1518   1.108       .  S
C1514      H1519   1.111       .  S
C1514      H1520   1.110       .  S
C1521      C1522   1.406   1_545  A
C1521      C1526   1.410       .  A
C1521      H1528   1.084       .  S
C1522      C1523   1.419   1_565  A
C1523      C1524   1.400       .  A
C1523      C1530   1.495   1_545  S
C1524      C1525   1.398       .  A
C1524      H1529   1.084       .  S
C1525      C1526   1.422       .  A
C1526      C1527   1.507       .  S
C1527      H1531   1.111       .  S
C1527      H1532   1.108       .  S
C1527      H1533   1.110       .  S
C1530      H1534   1.106       .  S
C1530      H1535   1.110       .  S
C1530      H1536   1.111       .  S
C1537      C1538   1.401       .  A
C1537      C1542   1.405       .  A
C1537      H1544   1.084       .  S
C1538      C1539   1.418       .  A
C1539      C1540   1.407       .  A
C1539      C1546   1.505       .  S
C1540      C1541   1.401       .  A
C1540      H1545   1.083       .  S
C1541      C1542   1.416       .  A
C1542      C1543   1.509       .  S
C1543      H1547   1.111       .  S
C1543      H1548   1.109       .  S
C1543      H1549   1.111       .  S
C1546      H1550   1.110   1_545  S
C1546      H1551   1.106       .  S
C1546      H1552   1.111       .  S
C1553      C1554   1.402       .  A
C1553      C1558   1.403       .  A
C1553      H1560   1.085       .  S
C1554      C1555   1.411       .  A
C1555      C1556   1.397       .  A
C1555      C1562   1.506       .  S
C1556      C1557   1.400       .  A
C1556      H1561   1.085       .  S
C1557      C1558   1.411       .  A
C1558      C1559   1.506       .  S
C1559      H1563   1.111       .  S
C1559      H1564   1.109       .  S
C1559      H1565   1.110       .  S
C1562      H1566   1.103       .  S
C1562      H1567   1.109       .  S
C1562      H1568   1.111       .  S
C1569      C1570   1.403       .  A
C1569      C1574   1.413       .  A
C1569      H1576   1.084   1_565  S
C1570      C1571   1.419       .  A
C1571      C1572   1.398       .  A
C1571      C1578   1.511       .  S
C1572      C1573   1.400       .  A
C1572      H1577   1.085       .  S
C1573      C1574   1.420       .  A
C1574      C1575   1.503   1_565  S
C1575      H1579   1.111       .  S
C1575      H1580   1.102       .  S
C1575      H1581   1.110       .  S
C1578      H1582   1.108       .  S
C1578      H1583   1.111       .  S
C1578      H1584   1.111       .  S
C1585      C1586   1.402       .  A
C1585      C1590   1.394       .  A
C1585      H1592   1.086       .  S
C1586      C1587   1.415       .  A
C1587      C1588   1.413       .  A
C1587      C1594   1.506       .  S
C1588      C1589   1.413       .  A
C1588      H1593   1.082       .  S
C1589      C1590   1.429       .  A
C1590      C1591   1.518       .  S
C1591      H1595   1.111       .  S
C1591      H1596   1.111       .  S
C1591      H1597   1.095       .  S
C1594      H1598   1.111       .  S
C1594      H1599   1.110       .  S
C1594      H1600   1.111       .  S
C1601      C1602   1.413       .  A
C1601      C1606   1.410       .  A
C1601      H1608   1.083       .  S
C1602      C1603   1.421       .  A
C1603      C1604   1.405       .  A
C1603      C1610   1.504       .  S
C1604      C1605   1.404       .  A
C1604      H1609   1.084   1_655  S
C1605      C1606   1.412       .  A
C1606      C1607   1.506       .  S
C1607      H1611   1.111       .  S
C1607      H1612   1.110       .  S
C1607      H1613   1.108       .  S
C1610      H1614   1.110       .  S
C1610      H1615   1.109       .  S
C1610      H1616   1.111       .  S
C1617      C1618   1.399       .  A
C1617      C1622   1.395       .  A
C1617      H1624   1.084       .  S
C1618      C1619   1.417       .  A
C1619      C1620   1.410       .  A
C1619      C1626   1.507   1_455  S
C1620      C1621   1.408       .  A
C1620      H1625   1.084       .  S
C1621      C1622   1.418       .  A
C1622      C1623   1.500       .  S
C1623      H1627   1.111       .  S
C1623      H1628   1.105   1_545  S
C1623      H1629   1.110       .  S
C1626      H1630   1.106       .  S
C1626      H1631   1.110       .  S
C1626      H1632   1.111       .  S
C1633      C1634   1.405       .  A
C1633      C1638   1.406       .  A
C1633      H1640   1.085       .  S
C1634      C1635   1.409   1_655  A
C1635      C1636   1.405       .  A
C1635      C1642   1.507       .  S
C1636      C1637   1.405       .  A
C1636      H1641   1.084       .  S
C1637      C1638   1.408   1_455  A
C1638      C1639   1.505       .  S
C1639      H1643   1.111       .  S
C1639      H1644   1.111       .  S
C1639      H1645   1.110       .  S
C1642      H1646   1.111       .  S
C1642      H1647   1.111       .  S
C1642      H1648   1.111       .  S
C1649      C1650   1.412       .  A
C1649      C1654   1.412       .  A
C1649      H1656   1.083       .  S
C1650      C1651   1.423       .  A
C1651      C1652   1.390       .  A
C1651      C1658   1.510       .  S
C1652      C1653   1.396       .  A
C1652      H1657   1.084       .  S
C1653      C1654   1.409       .  A
C1654      C1655   1.504       .  S
C1655      H1659   1.111       .  S
C1655      H1660   1.110       .  S
C1655      H1661   1.110       .  S
C1658      H1662   1.109       .  S
C1658      H1663   1.108       .  S
C1658      H1664   1.111       .  S
C1665      C1666   1.412       .  A
C1665      C1670   1.400       .  A
C1665      H1672   1.084       .  S
C1666      C1667   1.418       .  A
C1667      C1668   1.411       .  A
C1667      C1674   1.507       .  S
C1668      C1669   1.407       .  A
C1668      H1673   1.084       .  S
C1669      C1670   1.407       .  A
C1670      C1671   1.502       .  S
C1671      H1675   1.111       .  S
C1671      H1676   1.110       .  S
C1671      H1677   1.110       .  S
C1674      H1678   1.111       .  S
C1674      H1679   1.109       .  S
C1674      H1680   1.111       .  S
C1681      C1682   1.408   1_655  A
C1681      C1686   1.417       .  A
C1681      H1688   1.083       .  S
C1682      C1683   1.429       .  A
C1683      C1684   1.389       .  A
C1683      C1690   1.498       .  S
C1684      C1685   1.384   1_455  A
C1684      H1689   1.086       .  S
C1685      C1686   1.415       .  A
C1686      C1687   1.504       .  S
C1687      H1691   1.111       .  S
C1687      H1692   1.110       .  S
C1687      H1693   1.107       .  S
C1690      H1694   1.102       .  S
C1690      H1695   1.109       .  S
C1690      H1696   1.112       .  S
C1697      C1698   1.409       .  A
C1697      C1702   1.401       .  A
C1697      H1704   1.084       .  S
C1698      C1699   1.417       .  A
C1699      C1700   1.410       .  A
C1699      C1706   1.506       .  S
C1700      C1701   1.406       .  A
C1700      H1705   1.084       .  S
C1701      C1702   1.409       .  A
C1702      C1703   1.500       .  S
C1703      H1707   1.111       .  S
C1703      H1708   1.108       .  S
C1703      H1709   1.108       .  S
C1706      H1710   1.111       .  S
C1706      H1711   1.109       .  S
C1706      H1712   1.111       .  S
C1713      C1714   1.401       .  A
C1713      C1718   1.403       .  A
C1713      H1720   1.084       .  S
C1714      C1715   1.422       .  A
C1715      C1716   1.411       .  A
C1715      C1722   1.508       .  S
C1716      C1717   1.403       .  A
C1716      H1721   1.084       .  S
C1717      C1718   1.417       .  A
C1718      C1719   1.498       .  S
C1719      H1723   1.111       .  S
C1719      H1724   1.103       .  S
C1719      H1725   1.109       .  S
C1722      H1726   1.105       .  S
C1722      H1727   1.110   1_455  S
C1722      H1728   1.111   1_455  S
C1729      C1730   1.403       .  A
C1729      C1734   1.412       .  A
C1729      H1736   1.084       .  S
C1730      C1731   1.414       .  A
C1731      C1732   1.402       .  A
C1731      C1738   1.509       .  S
C1732      C1733   1.403       .  A
C1732      H1737   1.084       .  S
C1733      C1734   1.419       .  A
C1734      C1735   1.502       .  S
C1735      H1739   1.111   1_556  S
C1735      H1740   1.110       .  S
C1735      H1741   1.100       .  S
C1738      H1742   1.111       .  S
C1738      H1743   1.108       .  S
C1738      H1744   1.111       .  S
C1745      C1746   1.404       .  A
C1745      C1750   1.407       .  A
C1745      H1752   1.084       .  S
C1746      C1747   1.411       .  A
C1747      C1748   1.396       .  A
C1747      C1754   1.508       .  S
C1748      C1749   1.407       .  A
C1748      H1753   1.084       .  S
C1749      C1750   1.418       .  A
C1750      C1751   1.503       .  S
C1751      H1755   1.110       .  S
C1751      H1756   1.104       .  S
C1751      H1757   1.111       .  S
C1754      H1758   1.105       .  S
C1754      H1759   1.110       .  S
C1754      H1760   1.111       .  S
C1761      C1762   1.404       .  A
C1761      C1766   1.406       .  A
C1761      H1768   1.084       .  S
C1762      C1763   1.412       .  A
C1763      C1764   1.408       .  A
C1763      C1770   1.507       .  S
C1764      C1765   1.412       .  A
C1764      H1769   1.083       .  S
C1765      C1766   1.422       .  A
C1766      C1767   1.509       .  S
C1767      H1771   1.111       .  S
C1767      H1772   1.110       .  S
C1767      H1773   1.111       .  S
C1770      H1774   1.110       .  S
C1770      H1775   1.109       .  S
C1770      H1776   1.111       .  S
C1777      C1778   1.408       .  A
C1777      C1782   1.418   1_554  A
C1777      H1784   1.084       .  S
C1778      C1779   1.408       .  A
C1779      C1780   1.391   1_554  A
C1779      C1786   1.502       .  S
C1780      C1781   1.404       .  A
C1780      H1785   1.085       .  S
C1781      C1782   1.416       .  A
C1782      C1783   1.504       .  S
C1783      H1787   1.111       .  S
C1783      H1788   1.110       .  S
C1783      H1789   1.110       .  S
C1786      H1790   1.106       .  S
C1786      H1791   1.103       .  S
C1786      H1792   1.111       .  S
C1793      C1794   1.403       .  A
C1793      C1798   1.403       .  A
C1793      H1800   1.084   1_554  S
C1794      C1795   1.409       .  A
C1795      C1796   1.403       .  A
C1795      C1802   1.506       .  S
C1796      C1797   1.404       .  A
C1796      H1801   1.083       .  S
C1797      C1798   1.410       .  A
C1798      C1799   1.503       .  S
C1799      H1803   1.111   1_554  S
C1799      H1804   1.107       .  S
C1799      H1805   1.109       .  S
C1802      H1806   1.111       .  S
C1802      H1807   1.109       .  S
C1802      H1808   1.111       .  S
C1809      C1810   1.387       .  A
C1809      C1814   1.386       .  A
C1809      H1816   1.085       .  S
C1810      C1811   1.408       .  A
C1811      C1812   1.409       .  A
C1811      C1818   1.504       .  S
C1812      C1813   1.407       .  A
C1812      H1817   1.084       .  S
C1813      C1814   1.421       .  A
C1814      C1815   1.504       .  S
C1815      H1819   1.110       .  S
C1815      H1820   1.107       .  S
C1815      H1821   1.107       .  S
C1818      H1822   1.107       .  S
C1818      H1823   1.109       .  S
C1818      H1824   1.111       .  S
C1825      C1826   1.405       .  A
C1825      C1830   1.406       .  A
C1825      H1832   1.084       .  S
C1826      C1827   1.412       .  A
C1827      C1828   1.414       .  A
C1827      C1834   1.504       .  S
C1828      C1829   1.407       .  A
C1828      H1833   1.084       .  S
C1829      C1830   1.412       .  A
C1830      C1831   1.509       .  S
C1831      H1835   1.111       .  S
C1831      H1836   1.110       .  S
C1831      H1837   1.110       .  S
C1834      H1838   1.110       .  S
C1834      H1839   1.110       .  S
C1834      H1840   1.111       .  S
C1841      C1842   1.412       .  A
C1841      C1846   1.411       .  A
C1841      H1848   1.084       .  S
C1842      C1843   1.428       .  A
C1843      C1844   1.397       .  A
C1843      C1850   1.517       .  S
C1844      C1845   1.403       .  A
C1844      H1849   1.085       .  S
C1845      C1846   1.416       .  A
C1846      C1847   1.507       .  S
C1847      H1851   1.111       .  S
C1847      H1852   1.111       .  S
C1847      H1853   1.110       .  S
C1850      H1854   1.111   1_554  S
C1850      H1855   1.095   1_554  S
C1850      H1856   1.111       .  S
C1857      C1858   1.409       .  A
C1857      C1862   1.418       .  A
C1857      H1864   1.084       .  S
C1858      C1859   1.417       .  A
C1859      C1860   1.393   1_565  A
C1859      C1866   1.499   1_565  S
C1860      C1861   1.396   1_545  A
C1860      H1865   1.086       .  S
C1861      C1862   1.414       .  A
C1862      C1863   1.503       .  S
C1863      H1867   1.111       .  S
C1863      H1868   1.111       .  S
C1863      H1869   1.110       .  S
C1866      H1870   1.098       .  S
C1866      H1871   1.107   1_545  S
C1866      H1872   1.111       .  S
C1873      C1874   1.406       .  A
C1873      C1878   1.407       .  A
C1873      H1880   1.084       .  S
C1874      C1875   1.416       .  A
C1875      C1876   1.407       .  A
C1875      C1882   1.507       .  S
C1876      C1877   1.404       .  A
C1876      H1881   1.084       .  S
C1877      C1878   1.415       .  A
C1878      C1879   1.507       .  S
C1879      H1883   1.111       .  S
C1879      H1884   1.110   1_556  S
C1879      H1885   1.109       .  S
C1882      H1886   1.111       .  S
C1882      H1887   1.109       .  S
C1882      H1888   1.111       .  S
C1889      C1890   1.403       .  A
C1889      C1894   1.401       .  A
C1889      H1896   1.084       .  S
C1890      C1891   1.410       .  A
C1891      C1892   1.408       .  A
C1891      C1898   1.507       .  S
C1892      C1893   1.413       .  A
C1892      H1897   1.083       .  S
C1893      C1894   1.421       .  A
C1894      C1895   1.511       .  S
C1895      H1899   1.111       .  S
C1895      H1900   1.110       .  S
C1895      H1901   1.110       .  S
C1898      H1902   1.110       .  S
C1898      H1903   1.104       .  S
C1898      H1904   1.111       .  S
C1905      C1906   1.405       .  A
C1905      C1910   1.411       .  A
C1905      H1912   1.084       .  S
C1906      C1907   1.412       .  A
C1907      C1908   1.399       .  A
C1907      C1914   1.501       .  S
C1908      C1909   1.405       .  A
C1908      H1913   1.084       .  S
C1909      C1910   1.420       .  A
C1910      C1911   1.508       .  S
C1911      H1915   1.111       .  S
C1911      H1916   1.104       .  S
C1911      H1917   1.110       .  S
C1914      H1918   1.107       .  S
C1914      H1919   1.110       .  S
C1914      H1920   1.111       .  S
C1921      C1922   1.400       .  A
C1921      C1926   1.401       .  A
C1921      H1928   1.083       .  S
C1922      C1923   1.409       .  A
C1923      C1924   1.401       .  A
C1923      C1930   1.507       .  S
C1924      C1925   1.403       .  A
C1924      H1929   1.084       .  S
C1925      C1926   1.413       .  A
C1926      C1927   1.505       .  S
C1927      H1931   1.111       .  S
C1927      H1932   1.106       .  S
C1927      H1933   1.111       .  S
C1930      H1934   1.111       .  S
C1930      H1935   1.110       .  S
C1930      H1936   1.111       .  S
C1937      C1938   1.399       .  A
C1937      C1942   1.398       .  A
C1937      H1944   1.085       .  S
C1938      C1939   1.419       .  A
C1939      C1940   1.413       .  A
C1939      C1946   1.504       .  S
C1940      C1941   1.404       .  A
C1940      H1945   1.084       .  S
C1941      C1942   1.419       .  A
C1942      C1943   1.511       .  S
C1943      H1947   1.111       .  S
C1943      H1948   1.108       .  S
C1943      H1949   1.111       .  S
C1946      H1950   1.103       .  S
C1946      H1951   1.110       .  S
C1946      H1952   1.111       .  S
C1953      C1954   1.403       .  A
C1953      C1958   1.408       .  A
C1953      H1960   1.085   1_655  S
C1954      C1955   1.415       .  A
C1955      C1956   1.396       .  A
C1955      C1962   1.510       .  S
C1956      C1957   1.402       .  A
C1956      H1961   1.085       .  S
C1957      C1958   1.421       .  A
C1958      C1959   1.506   1_655  S
C1959      H1963   1.110       .  S
C1959      H1964   1.107       .  S
C1959      H1965   1.103       .  S
C1962      H1966   1.108       .  S
C1962      H1967   1.111       .  S
C1962      H1968   1.111       .  S
C1969      C1970   1.406       .  A
C1969      C1974   1.411       .  A
C1969      H1976   1.078       .  S
C1970      C1971   1.410       .  A
C1971      C1972   1.396       .  A
C1971      C1978   1.507       .  S
C1972      C1973   1.407       .  A
C1972      H1977   1.084       .  S
C1973      C1974   1.417       .  A
C1974      C1975   1.507       .  S
C1975      H1979   1.111       .  S
C1975      H1980   1.110       .  S
C1975      H1981   1.110       .  S
C1978      H1982   1.111       .  S
C1978      H1983   1.107       .  S
C1978      H1984   1.111       .  S
C1985      C1986   1.408       .  A
C1985      C1990   1.416       .  A
C1985      H1992   1.084       .  S
C1986      C1987   1.410       .  A
C1987      C1988   1.394   1_565  A
C1987      C1994   1.490   1_565  S
C1988      C1989   1.390       .  A
C1988      H1993   1.086       .  S
C1989      C1990   1.413   1_545  A
C1990      C1991   1.503       .  S
C1991      H1995   1.111       .  S
C1991      H1996   1.110       .  S
C1991      H1997   1.111       .  S
C1994      H1998   1.107   1_545  S
C1994      H1999   1.108       .  S
C1994      H2000   1.102       .  S
C2001      C2002   1.405       .  A
C2001      C2006   1.394       .  A
C2001      H2008   1.083       .  S
C2002      C2003   1.420       .  A
C2003      C2004   1.417       .  A
C2003      C2010   1.505       .  S
C2004      C2005   1.405       .  A
C2004      H2009   1.084       .  S
C2005      C2006   1.408       .  A
C2006      C2007   1.511       .  S
C2007      H2011   1.110       .  S
C2007      H2012   1.097       .  S
C2007      H2013   1.110       .  S
C2010      H2014   1.110   1_545  S
C2010      H2015   1.109   1_545  S
C2010      H2016   1.111       .  S
C2017      C2018   1.406       .  A
C2017      C2022   1.394   1_565  A
C2017      H2024   1.083       .  S
C2018      C2019   1.414       .  A
C2019      C2020   1.408   1_565  A
C2019      C2026   1.506       .  S
C2020      C2021   1.410       .  A
C2020      H2025   1.079       .  S
C2021      C2022   1.418       .  A
C2022      C2023   1.512       .  S
C2023      H2027   1.111   1_545  S
C2023      H2028   1.110       .  S
C2023      H2029   1.110   1_545  S
C2026      H2030   1.108   1_565  S
C2026      H2031   1.110       .  S
C2026      H2032   1.111   1_565  S
C2033      C2034   1.404       .  A
C2033      C2038   1.403       .  A
C2033      H2040   1.082       .  S
C2034      C2035   1.419       .  A
C2035      C2036   1.399       .  A
C2035      C2042   1.511       .  S
C2036      C2037   1.397       .  A
C2036      H2041   1.085       .  S
C2037      C2038   1.412       .  A
C2038      C2039   1.506       .  S
C2039      H2043   1.111       .  S
C2039      H2044   1.106       .  S
C2039      H2045   1.110       .  S
C2042      H2046   1.110       .  S
C2042      H2047   1.108       .  S
C2042      H2048   1.111       .  S
C2049      C2050   1.399       .  A
C2049      C2054   1.392       .  A
C2049      H2056   1.085       .  S
C2050      C2051   1.420       .  A
C2051      C2052   1.418       .  A
C2051      C2058   1.505       .  S
C2052      C2053   1.408       .  A
C2052      H2057   1.084       .  S
C2053      C2054   1.424       .  A
C2054      C2055   1.513       .  S
C2055      H2059   1.111       .  S
C2055      H2060   1.108       .  S
C2055      H2061   1.105       .  S
C2058      H2062   1.110       .  S
C2058      H2063   1.107       .  S
C2058      H2064   1.111       .  S
C2065      C2066   1.398   1_545  A
C2065      C2070   1.404       .  A
C2065      H2072   1.085       .  S
C2066      C2067   1.418       .  A
C2067      C2068   1.396       .  A
C2067      C2074   1.501       .  S
C2068      C2069   1.393   1_565  A
C2068      H2073   1.085       .  S
C2069      C2070   1.417       .  A
C2070      C2071   1.503       .  S
C2071      H2075   1.111       .  S
C2071      H2076   1.105       .  S
C2071      H2077   1.103       .  S
C2074      H2078   1.097       .  S
C2074      H2079   1.111       .  S
C2074      H2080   1.107       .  S
C2081      C2082   1.409       .  A
C2081      C2086   1.404       .  A
C2081      H2088   1.083       .  S
C2082      C2083   1.417       .  A
C2083      C2084   1.407       .  A
C2083      C2090   1.508       .  S
C2084      C2085   1.409       .  A
C2084      H2089   1.084       .  S
C2085      C2086   1.416       .  A
C2086      C2087   1.509       .  S
C2087      H2091   1.111       .  S
C2087      H2092   1.110       .  S
C2087      H2093   1.110       .  S
C2090      H2094   1.108       .  S
C2090      H2095   1.110       .  S
C2090      H2096   1.111       .  S
C2097      C2098   1.408       .  A
C2097      C2102   1.414   1_655  A
C2097      H2104   1.084       .  S
C2098      C2099   1.421   1_655  A
C2099      C2100   1.393       .  A
C2099      C2106   1.510   1_455  S
C2100      C2101   1.395       .  A
C2100      H2105   1.086       .  S
C2101      C2102   1.412       .  A
C2102      C2103   1.503   1_545  S
C2103      H2107   1.111       .  S
C2103      H2108   1.110   1_565  S
C2103      H2109   1.110       .  S
C2106      H2110   1.108       .  S
C2106      H2111   1.109       .  S
C2106      H2112   1.111   1_655  S
C2113      C2114   1.404       .  A
C2113      C2118   1.394       .  A
C2113      H2120   1.083       .  S
C2114      C2115   1.418       .  A
C2115      C2116   1.410       .  A
C2115      C2122   1.507       .  S
C2116      C2117   1.407       .  A
C2116      H2121   1.077       .  S
C2117      C2118   1.423       .  A
C2118      C2119   1.514       .  S
C2119      H2123   1.111       .  S
C2119      H2124   1.110       .  S
C2119      H2125   1.110       .  S
C2122      H2126   1.110       .  S
C2122      H2127   1.110       .  S
C2122      H2128   1.111       .  S
C2129      C2130   1.400       .  A
C2129      C2134   1.395       .  A
C2129      H2136   1.085       .  S
C2130      C2131   1.418       .  A
C2131      C2132   1.414       .  A
C2131      C2138   1.505       .  S
C2132      C2133   1.410       .  A
C2132      H2137   1.084       .  S
C2133      C2134   1.425       .  A
C2134      C2135   1.513       .  S
C2135      H2139   1.111       .  S
C2135      H2140   1.107       .  S
C2135      H2141   1.110       .  S
C2138      H2142   1.111       .  S
C2138      H2143   1.103       .  S
C2138      H2144   1.111       .  S
C2145      C2146   1.398       .  A
C2145      C2150   1.401       .  A
C2145      H2152   1.085       .  S
C2146      C2147   1.417       .  A
C2147      C2148   1.411       .  A
C2147      C2154   1.499   1_655  S
C2148      C2149   1.405       .  A
C2148      H2153   1.084   1_655  S
C2149      C2150   1.429       .  A
C2150      C2151   1.511       .  S
C2151      H2155   1.111       .  S
C2151      H2156   1.110       .  S
C2151      H2157   1.110       .  S
C2154      H2158   1.110       .  S
C2154      H2159   1.096       .  S
C2154      H2160   1.111       .  S
C2161      C2162   1.405       .  A
C2161      C2166   1.389       .  A
C2161      H2168   1.084       .  S
C2162      C2163   1.416       .  A
C2163      C2164   1.409       .  A
C2163      C2170   1.505       .  S
C2164      C2165   1.407       .  A
C2164      H2169   1.080       .  S
C2165      C2166   1.419       .  A
C2166      C2167   1.516       .  S
C2167      H2171   1.111       .  S
C2167      H2172   1.110       .  S
C2167      H2173   1.103       .  S
C2170      H2174   1.110       .  S
C2170      H2175   1.110       .  S
C2170      H2176   1.111       .  S
C2177      C2178   1.414       .  A
C2177      C2182   1.409       .  A
C2177      H2184   1.083       .  S
C2178      C2179   1.421       .  A
C2179      C2180   1.401       .  A
C2179      C2186   1.502       .  S
C2180      C2181   1.400       .  A
C2180      H2185   1.085       .  S
C2181      C2182   1.409       .  A
C2182      C2183   1.505       .  S
C2183      H2187   1.111       .  S
C2183      H2188   1.109       .  S
C2183      H2189   1.111       .  S
C2186      H2190   1.108       .  S
C2186      H2191   1.108       .  S
C2186      H2192   1.111       .  S
C2193      C2194   1.400   1_655  A
C2193      C2198   1.399   1_655  A
C2193      H2200   1.084       .  S
C2194      C2195   1.421       .  A
C2195      C2196   1.411       .  A
C2195      C2202   1.507       .  S
C2196      C2197   1.404       .  A
C2196      H2201   1.084       .  S
C2197      C2198   1.416       .  A
C2198      C2199   1.497   1_455  S
C2199      H2203   1.111       .  S
C2199      H2204   1.109   1_655  S
C2199      H2205   1.104       .  S
C2202      H2206   1.110       .  S
C2202      H2207   1.105       .  S
C2202      H2208   1.111       .  S
C2209      C2210   1.402       .  A
C2209      C2214   1.402       .  A
C2209      H2216   1.084       .  S
C2210      C2211   1.410       .  A
C2211      C2212   1.404       .  A
C2211      C2218   1.507       .  S
C2212      C2213   1.409       .  A
C2212      H2217   1.085       .  S
C2213      C2214   1.416       .  A
C2214      C2215   1.504       .  S
C2215      H2219   1.111       .  S
C2215      H2220   1.101       .  S
C2215      H2221   1.111       .  S
C2218      H2222   1.110       .  S
C2218      H2223   1.111       .  S
C2218      H2224   1.111       .  S
C2225      C2226   1.394       .  A
C2225      C2230   1.398       .  A
C2225      H2232   1.085       .  S
C2226      C2227   1.412       .  A
C2227      C2228   1.410       .  A
C2227      C2234   1.501       .  S
C2228      C2229   1.405       .  A
C2228      H2233   1.084       .  S
C2229      C2230   1.424       .  A
C2230      C2231   1.506       .  S
C2231      H2235   1.111       .  S
C2231      H2236   1.109       .  S
C2231      H2237   1.105       .  S
C2234      H2238   1.105       .  S
C2234      H2239   1.110       .  S
C2234      H2240   1.111       .  S
C2241      C2242   1.399       .  A
C2241      C2246   1.390       .  A
C2241      H2248   1.083       .  S
C2242      C2243   1.414       .  A
C2243      C2244   1.413       .  A
C2243      C2250   1.504       .  S
C2244      C2245   1.407       .  A
C2244      H2249   1.084       .  S
C2245      C2246   1.413       .  A
C2246      C2247   1.503       .  S
C2247      H2251   1.111       .  S
C2247      H2252   1.095       .  S
C2247      H2253   1.110       .  S
C2250      H2254   1.110       .  S
C2250      H2255   1.111       .  S
C2250      H2256   1.111       .  S
C2257      C2258   1.402       .  A
C2257      C2262   1.395       .  A
C2257      H2264   1.085       .  S
C2258      C2259   1.410       .  A
C2259      C2260   1.410       .  A
C2259      C2266   1.503       .  S
C2260      C2261   1.408       .  A
C2260      H2265   1.084       .  S
C2261      C2262   1.410       .  A
C2262      C2263   1.508       .  S
C2263      H2267   1.111       .  S
C2263      H2268   1.109       .  S
C2263      H2269   1.110       .  S
C2266      H2270   1.110       .  S
C2266      H2271   1.107       .  S
C2266      H2272   1.111       .  S
C2273      C2274   1.391       .  A
C2273      C2278   1.394       .  A
C2273      H2280   1.085       .  S
C2274      C2275   1.404       .  A
C2275      C2276   1.404       .  A
C2275      C2282   1.504       .  S
C2276      C2277   1.408       .  A
C2276      H2281   1.082       .  S
C2277      C2278   1.427       .  A
C2278      C2279   1.512       .  S
C2279      H2283   1.111       .  S
C2279      H2284   1.109       .  S
C2279      H2285   1.111       .  S
C2282      H2286   1.110       .  S
C2282      H2287   1.110       .  S
C2282      H2288   1.109       .  S
C2289      C2290   1.414       .  A
C2289      C2294   1.391       .  A
C2289      H2296   1.084       .  S
C2290      C2291   1.417       .  A
C2291      C2292   1.413       .  A
C2291      C2298   1.505       .  S
C2292      C2293   1.404       .  A
C2292      H2297   1.084       .  S
C2293      C2294   1.403       .  A
C2294      C2295   1.508       .  S
C2295      H2299   1.111       .  S
C2295      H2300   1.110       .  S
C2295      H2301   1.110       .  S
C2298      H2302   1.110       .  S
C2298      H2303   1.110       .  S
C2298      H2304   1.111       .  S
C2305      C2306   1.394       .  A
C2305      C2310   1.396       .  A
C2305      H2312   1.086       .  S
C2306      C2307   1.411       .  A
C2307      C2308   1.406       .  A
C2307      C2314   1.506       .  S
C2308      C2309   1.402       .  A
C2308      H2313   1.084       .  S
C2309      C2310   1.416       .  A
C2310      C2311   1.504       .  S
C2311      H2315   1.111       .  S
C2311      H2316   1.109       .  S
C2311      H2317   1.107       .  S
C2314      H2318   1.111       .  S
C2314      H2319   1.110       .  S
C2314      H2320   1.111       .  S
C2321      C2322   1.407       .  A
C2321      C2326   1.414       .  A
C2321      H2328   1.080       .  S
C2322      C2323   1.407       .  A
C2323      C2324   1.392       .  A
C2323      C2330   1.510       .  S
C2324      C2325   1.413       .  A
C2324      H2329   1.084       .  S
C2325      C2326   1.417       .  A
C2326      C2327   1.505       .  S
C2327      H2331   1.111       .  S
C2327      H2332   1.110       .  S
C2327      H2333   1.111       .  S
C2330      H2334   1.111       .  S
C2330      H2335   1.109       .  S
C2330      H2336   1.111       .  S
C2337      C2338   1.402       .  A
C2337      C2342   1.398       .  A
C2337      H2344   1.084       .  S
C2338      C2339   1.415       .  A
C2339      C2340   1.408       .  A
C2339      C2346   1.506       .  S
C2340      C2341   1.408       .  A
C2340      H2345   1.084       .  S
C2341      C2342   1.420       .  A
C2342      C2343   1.511       .  S
C2343      H2347   1.111       .  S
C2343      H2348   1.110       .  S
C2343      H2349   1.111       .  S
C2346      H2350   1.106       .  S
C2346      H2351   1.110       .  S
C2346      H2352   1.111       .  S
C2353      C2354   1.398       .  A
C2353      C2358   1.397       .  A
C2353      H2360   1.085       .  S
C2354      C2355   1.412       .  A
C2355      C2356   1.413       .  A
C2355      C2362   1.504       .  S
C2356      C2357   1.406       .  A
C2356      H2361   1.084       .  S
C2357      C2358   1.414       .  A
C2358      C2359   1.508       .  S
C2359      H2363   1.111       .  S
C2359      H2364   1.107       .  S
C2359      H2365   1.108       .  S
C2362      H2366   1.111       .  S
C2362      H2367   1.110       .  S
C2362      H2368   1.111       .  S
C2369      C2370   1.400       .  A
C2369      C2374   1.406       .  A
C2369      H2376   1.085       .  S
C2370      C2371   1.412       .  A
C2371      C2372   1.404       .  A
C2371      C2378   1.508       .  S
C2372      C2373   1.408       .  A
C2372      H2377   1.083       .  S
C2373      C2374   1.425       .  A
C2374      C2375   1.509       .  S
C2375      H2379   1.111       .  S
C2375      H2380   1.110       .  S
C2375      H2381   1.110       .  S
C2378      H2382   1.108       .  S
C2378      H2383   1.110       .  S
C2378      H2384   1.111       .  S
C2385      C2386   1.406       .  A
C2385      C2390   1.409       .  A
C2385      H2392   1.084       .  S
C2386      C2387   1.403       .  A
C2387      C2388   1.395       .  A
C2387      C2394   1.504       .  S
C2388      C2389   1.401       .  A
C2388      H2393   1.078       .  S
C2389      C2390   1.410       .  A
C2390      C2391   1.504       .  S
C2391      H2395   1.111       .  S
C2391      H2396   1.110       .  S
C2391      H2397   1.110       .  S
C2394      H2398   1.109       .  S
C2394      H2399   1.110       .  S
C2394      H2400   1.105       .  S
C2401      C2402   1.393       .  A
C2401      C2406   1.393       .  A
C2401      H2408   1.086       .  S
C2402      C2403   1.407       .  A
C2403      C2404   1.404       .  A
C2403      C2410   1.502       .  S
C2404      C2405   1.407       .  A
C2404      H2409   1.084       .  S
C2405      C2406   1.427       .  A
C2406      C2407   1.514       .  S
C2407      H2411   1.111       .  S
C2407      H2412   1.109       .  S
C2407      H2413   1.111       .  S
C2410      H2414   1.107       .  S
C2410      H2415   1.110       .  S
C2410      H2416   1.111       .  S
C2417      C2418   1.404       .  A
C2417      C2422   1.398       .  A
C2417      H2424   1.085       .  S
C2418      C2419   1.421       .  A
C2419      C2420   1.419       .  A
C2419      C2426   1.504       .  S
C2420      C2421   1.408       .  A
C2420      H2425   1.084       .  S
C2421      C2422   1.420       .  A
C2422      C2423   1.512       .  S
C2423      H2427   1.111       .  S
C2423      H2428   1.106       .  S
C2423      H2429   1.109       .  S
C2426      H2430   1.110       .  S
C2426      H2431   1.106       .  S
C2426      H2432   1.111       .  S
C2433      C2434   1.408       .  A
C2433      C2438   1.408       .  A
C2433      H2440   1.085       .  S
C2434      C2435   1.410       .  A
C2435      C2436   1.400       .  A
C2435      C2442   1.508       .  S
C2436      C2437   1.404       .  A
C2436      H2441   1.085       .  S
C2437      C2438   1.409       .  A
C2438      C2439   1.504       .  S
C2439      H2443   1.111       .  S
C2439      H2444   1.107       .  S
C2439      H2445   1.111       .  S
C2442      H2446   1.111       .  S
C2442      H2447   1.109       .  S
C2442      H2448   1.111       .  S
C2449      C2450   1.401       .  A
C2449      C2454   1.399       .  A
C2449      H2456   1.085       .  S
C2450      C2451   1.415       .  A
C2451      C2452   1.410       .  A
C2451      C2458   1.506       .  S
C2452      C2453   1.405       .  A
C2452      H2457   1.084       .  S
C2453      C2454   1.420       .  A
C2454      C2455   1.511       .  S
C2455      H2459   1.111       .  S
C2455      H2460   1.111       .  S
C2455      H2461   1.105       .  S
C2458      H2462   1.111       .  S
C2458      H2463   1.109       .  S
C2458      H2464   1.111       .  S
C2465      C2466   1.411       .  A
C2465      C2470   1.412       .  A
C2465      H2472   1.084       .  S
C2466      C2467   1.427       .  A
C2467      C2468   1.401       .  A
C2467      C2474   1.512       .  S
C2468      C2469   1.397       .  A
C2468      H2473   1.085       .  S
C2469      C2470   1.409       .  A
C2470      C2471   1.504       .  S
C2471      H2475   1.111       .  S
C2471      H2476   1.111       .  S
C2471      H2477   1.110       .  S
C2474      H2478   1.110       .  S
C2474      H2479   1.110       .  S
C2474      H2480   1.111       .  S
C2481      C2482   1.398       .  A
C2481      C2486   1.403       .  A
C2481      H2488   1.085       .  S
C2482      C2483   1.421       .  A
C2483      C2484   1.400       .  A
C2483      C2490   1.509       .  S
C2484      C2485   1.398       .  A
C2484      H2489   1.085       .  S
C2485      C2486   1.416       .  A
C2486      C2487   1.494       .  S
C2487      H2491   1.111       .  S
C2487      H2492   1.100       .  S
C2487      H2493   1.105       .  S
C2490      H2494   1.107       .  S
C2490      H2495   1.109       .  S
C2490      H2496   1.111       .  S
C2497      C2498   1.409       .  A
C2497      C2502   1.415       .  A
C2497      H2504   1.084       .  S
C2498      C2499   1.416       .  A
C2499      C2500   1.386       .  A
C2499      C2506   1.509       .  S
C2500      C2501   1.401       .  A
C2500      H2505   1.084       .  S
C2501      C2502   1.415       .  A
C2502      C2503   1.503       .  S
C2503      H2507   1.111       .  S
C2503      H2508   1.110       .  S
C2503      H2509   1.104       .  S
C2506      H2510   1.108       .  S
C2506      H2511   1.097       .  S
C2506      H2512   1.111       .  S
C2513      C2514   1.405       .  A
C2513      C2518   1.415       .  A
C2513      H2520   1.084       .  S
C2514      C2515   1.422       .  A
C2515      C2516   1.395       .  A
C2515      C2522   1.504       .  S
C2516      C2517   1.394       .  A
C2516      H2521   1.086       .  S
C2517      C2518   1.416       .  A
C2518      C2519   1.505       .  S
C2519      H2523   1.111       .  S
C2519      H2524   1.110       .  S
C2519      H2525   1.110       .  S
C2522      H2526   1.107       .  S
C2522      H2527   1.099       .  S
C2522      H2528   1.110       .  S
C2529      C2530   1.409       .  A
C2529      C2534   1.407       .  A
C2529      H2536   1.084       .  S
C2530      C2531   1.427       .  A
C2531      C2532   1.395       .  A
C2531      C2538   1.515       .  S
C2532      C2533   1.399       .  A
C2532      H2537   1.085       .  S
C2533      C2534   1.413       .  A
C2534      C2535   1.507       .  S
C2535      H2539   1.111       .  S
C2535      H2540   1.109       .  S
C2535      H2541   1.111       .  S
C2538      H2542   1.096       .  S
C2538      H2543   1.111       .  S
C2538      H2544   1.111       .  S
C2545      C2546   1.409       .  A
C2545      C2550   1.407       .  A
C2545      H2552   1.084       .  S
C2546      C2547   1.419       .  A
C2547      C2548   1.408       .  A
C2547      C2554   1.508       .  S
C2548      C2549   1.409       .  A
C2548      H2553   1.084       .  S
C2549      C2550   1.417       .  A
C2550      C2551   1.507       .  S
C2551      H2555   1.111       .  S
C2551      H2556   1.107       .  S
C2551      H2557   1.110       .  S
C2554      H2558   1.109       .  S
C2554      H2559   1.111       .  S
C2554      H2560   1.111       .  S
C2561      C2562   1.406       .  A
C2561      C2566   1.407       .  A
C2561      H2568   1.084       .  S
C2562      C2563   1.411       .  A
C2563      C2564   1.394       .  A
C2563      C2570   1.506       .  S
C2564      C2565   1.399       .  A
C2564      H2569   1.084       .  S
C2565      C2566   1.408       .  A
C2566      C2567   1.504       .  S
C2567      H2571   1.111       .  S
C2567      H2572   1.110       .  S
C2567      H2573   1.111       .  S
C2570      H2574   1.108       .  S
C2570      H2575   1.109       .  S
C2570      H2576   1.111       .  S
C2577      C2578   1.406       .  A
C2577      C2582   1.399       .  A
C2577      H2584   1.085       .  S
C2578      C2579   1.411       .  A
C2579      C2580   1.411       .  A
C2579      C2586   1.504       .  S
C2580      C2581   1.411       .  A
C2580      H2585   1.084       .  S
C2581      C2582   1.413       .  A
C2582      C2583   1.509       .  S
C2583      H2587   1.111       .  S
C2583      H2588   1.109       .  S
C2583      H2589   1.110       .  S
C2586      H2590   1.106       .  S
C2586      H2591   1.110       .  S
C2586      H2592   1.108       .  S
C2593      C2594   1.402       .  A
C2593      C2598   1.404       .  A
C2593      H2600   1.084       .  S
C2594      C2595   1.414       .  A
C2595      C2596   1.399       .  A
C2595      C2602   1.508       .  S
C2596      C2597   1.399       .  A
C2596      H2601   1.085       .  S
C2597      C2598   1.410       .  A
C2598      C2599   1.506       .  S
C2599      H2603   1.111       .  S
C2599      H2604   1.111       .  S
C2599      H2605   1.109       .  S
C2602      H2606   1.107       .  S
C2602      H2607   1.111       .  S
C2602      H2608   1.109       .  S
C2609      C2610   1.404       .  A
C2609      C2614   1.395       .  A
C2609      H2616   1.085       .  S
C2610      C2611   1.414       .  A
C2611      C2612   1.412       .  A
C2611      C2618   1.505       .  S
C2612      C2613   1.406       .  A
C2612      H2617   1.083       .  S
C2613      C2614   1.411       .  A
C2614      C2615   1.508       .  S
C2615      H2619   1.111       .  S
C2615      H2620   1.110       .  S
C2615      H2621   1.109       .  S
C2618      H2622   1.110       .  S
C2618      H2623   1.110       .  S
C2618      H2624   1.111       .  S
C2625      C2626   1.398       .  A
C2625      C2630   1.398       .  A
C2625      H2632   1.085       .  S
C2626      C2627   1.411       .  A
C2627      C2628   1.403       .  A
C2627      C2634   1.500       .  S
C2628      C2629   1.403       .  A
C2628      H2633   1.084       .  S
C2629      C2630   1.419       .  A
C2630      C2631   1.509       .  S
C2631      H2635   1.111       .  S
C2631      H2636   1.108       .  S
C2631      H2637   1.109       .  S
C2634      H2638   1.110       .  S
C2634      H2639   1.110       .  S
C2634      H2640   1.110       .  S
C2641      C2642   1.405       .  A
C2641      C2646   1.401       .  A
C2641      H2648   1.085       .  S
C2642      C2643   1.410       .  A
C2643      C2644   1.409       .  A
C2643      C2650   1.505       .  S
C2644      C2645   1.407       .  A
C2644      H2649   1.084       .  S
C2645      C2646   1.409       .  A
C2646      C2647   1.508       .  S
C2647      H2651   1.111       .  S
C2647      H2652   1.109       .  S
C2647      H2653   1.111       .  S
C2650      H2654   1.111       .  S
C2650      H2655   1.110       .  S
C2650      H2656   1.111       .  S
C2657      C2658   1.399       .  A
C2657      C2662   1.398       .  A
C2657      H2664   1.085       .  S
C2658      C2659   1.415       .  A
C2659      C2660   1.401       .  A
C2659      C2666   1.506       .  S
C2660      C2661   1.399       .  A
C2660      H2665   1.085       .  S
C2661      C2662   1.417       .  A
C2662      C2663   1.510       .  S
C2663      H2667   1.111       .  S
C2663      H2668   1.108       .  S
C2663      H2669   1.110       .  S
C2666      H2670   1.110       .  S
C2666      H2671   1.109       .  S
C2666      H2672   1.110       .  S
C2673      C2674   1.408       .  A
C2673      C2678   1.406       .  A
C2673      H2680   1.084       .  S
C2674      C2675   1.411       .  A
C2675      C2676   1.401       .  A
C2675      C2682   1.508       .  S
C2676      C2677   1.405       .  A
C2676      H2681   1.085       .  S
C2677      C2678   1.406       .  A
C2678      C2679   1.505       .  S
C2679      H2683   1.111       .  S
C2679      H2684   1.110       .  S
C2679      H2685   1.111       .  S
C2682      H2686   1.111       .  S
C2682      H2687   1.109       .  S
C2682      H2688   1.112       .  S
C2689      C2690   1.407       .  A
C2689      C2694   1.413       .  A
C2689      H2696   1.084       .  S
C2690      C2691   1.411       .  A
C2691      C2692   1.395       .  A
C2691      C2698   1.503       .  S
C2692      C2693   1.400       .  A
C2692      H2697   1.084       .  S
C2693      C2694   1.411       .  A
C2694      C2695   1.503       .  S
C2695      H2699   1.111       .  S
C2695      H2700   1.111       .  S
C2695      H2701   1.110       .  S
C2698      H2702   1.111       .  S
C2698      H2703   1.105       .  S
C2698      H2704   1.111       .  S
C2705      C2706   1.405       .  A
C2705      C2710   1.408       .  A
C2705      H2712   1.085       .  S
C2706      C2707   1.412       .  A
C2707      C2708   1.399       .  A
C2707      C2714   1.509       .  S
C2708      C2709   1.403       .  A
C2708      H2713   1.085       .  S
C2709      C2710   1.416       .  A
C2710      C2711   1.505       .  S
C2711      H2715   1.110       .  S
C2711      H2716   1.106       .  S
C2711      H2717   1.109       .  S
C2714      H2718   1.111       .  S
C2714      H2719   1.108       .  S
C2714      H2720   1.111       .  S
C2721      C2722   1.408       .  A
C2721      C2726   1.413       .  A
C2721      H2728   1.084       .  S
C2722      C2723   1.424       .  A
C2723      C2724   1.393       .  A
C2723      C2730   1.515       .  S
C2724      C2725   1.403       .  A
C2724      H2729   1.083       .  S
C2725      C2726   1.420       .  A
C2726      C2727   1.505       .  S
C2727      H2731   1.110       .  S
C2727      H2732   1.107       .  S
C2727      H2733   1.110       .  S
C2730      H2734   1.108       .  S
C2730      H2735   1.110       .  S
C2730      H2736   1.111       .  S
C2737      C2738   1.406       .  A
C2737      C2742   1.413       .  A
C2737      H2744   1.084       .  S
C2738      C2739   1.420       .  A
C2739      C2740   1.398       .  A
C2739      C2746   1.506       .  S
C2740      C2741   1.396       .  A
C2740      H2745   1.086       .  S
C2741      C2742   1.412       .  A
C2742      C2743   1.504       .  S
C2743      H2747   1.111       .  S
C2743      H2748   1.110       .  S
C2743      H2749   1.111       .  S
C2746      H2750   1.111       .  S
C2746      H2751   1.100       .  S
C2746      H2752   1.111       .  S
C2753      C2754   1.405       .  A
C2753      C2758   1.410       .  A
C2753      H2760   1.084       .  S
C2754      C2755   1.421       .  A
C2755      C2756   1.400       .  A
C2755      C2762   1.508       .  S
C2756      C2757   1.403       .  A
C2756      H2761   1.085       .  S
C2757      C2758   1.418       .  A
C2758      C2759   1.505       .  S
C2759      H2763   1.111       .  S
C2759      H2764   1.103       .  S
C2759      H2765   1.110       .  S
C2762      H2766   1.111       .  S
C2762      H2767   1.098       .  S
C2762      H2768   1.111       .  S
C2769      C2770   1.402       .  A
C2769      C2774   1.392       .  A
C2769      H2776   1.064       .  S
C2770      C2771   1.411       .  A
C2771      C2772   1.413       .  A
C2771      C2778   1.504       .  S
C2772      C2773   1.410       .  A
C2772      H2777   1.083       .  S
C2773      C2774   1.407       .  A
C2774      C2775   1.510       .  S
C2775      H2779   1.109       .  S
C2775      H2780   1.107       .  S
C2775      H2781   1.105       .  S
C2778      H2782   1.110       .  S
C2778      H2783   1.111       .  S
C2778      H2784   1.111       .  S
C2785      C2786   1.399       .  A
C2785      C2790   1.393       .  A
C2785      H2792   1.084       .  S
C2786      C2787   1.409       .  A
C2787      C2788   1.407       .  A
C2787      C2794   1.505       .  S
C2788      C2789   1.404       .  A
C2788      H2793   1.084       .  S
C2789      C2790   1.408       .  A
C2790      C2791   1.502       .  S
C2791      H2795   1.111       .  S
C2791      H2796   1.103       .  S
C2791      H2797   1.106       .  S
C2794      H2798   1.110       .  S
C2794      H2799   1.111       .  S
C2794      H2800   1.111       .  S
C2801      C2802   1.408       .  A
C2801      C2806   1.409       .  A
C2801      H2808   1.084       .  S
C2802      C2803   1.411       .  A
C2803      C2804   1.399       .  A
C2803      C2810   1.508       .  S
C2804      C2805   1.403       .  A
C2804      H2809   1.085       .  S
C2805      C2806   1.410       .  A
C2806      C2807   1.505       .  S
C2807      H2811   1.111       .  S
C2807      H2812   1.110       .  S
C2807      H2813   1.109       .  S
C2810      H2814   1.111       .  S
C2810      H2815   1.108       .  S
C2810      H2816   1.111       .  S
C2817      C2818   1.408       .  A
C2817      C2822   1.407       .  A
C2817      H2824   1.082       .  S
C2818      C2819   1.412       .  A
C2819      C2820   1.396       .  A
C2819      C2826   1.510       .  S
C2820      C2821   1.405       .  A
C2820      H2825   1.085       .  S
C2821      C2822   1.410       .  A
C2822      C2823   1.506       .  S
C2823      H2827   1.109       .  S
C2823      H2828   1.111       .  S
C2823      H2829   1.110       .  S
C2826      H2830   1.108       .  S
C2826      H2831   1.111       .  S
C2826      H2832   1.111       .  S
C2833      C2834   1.408       .  A
C2833      C2838   1.405       .  A
C2833      H2840   1.084       .  S
C2834      C2835   1.419       .  A
C2835      C2836   1.403       .  A
C2835      C2842   1.509       .  S
C2836      C2837   1.407       .  A
C2836      H2841   1.084       .  S
C2837      C2838   1.418       .  A
C2838      C2839   1.508       .  S
C2839      H2843   1.111       .  S
C2839      H2844   1.110       .  S
C2839      H2845   1.109       .  S
C2842      H2846   1.110       .  S
C2842      H2847   1.109       .  S
C2842      H2848   1.111       .  S
C2849      C2850   1.408       .  A
C2849      C2854   1.414       .  A
C2849      H2856   1.084       .  S
C2850      C2851   1.410       .  A
C2851      C2852   1.391       .  A
C2851      C2858   1.510       .  S
C2852      C2853   1.403       .  A
C2852      H2857   1.084       .  S
C2853      C2854   1.413       .  A
C2854      C2855   1.504       .  S
C2855      H2859   1.111       .  S
C2855      H2860   1.110       .  S
C2855      H2861   1.111       .  S
C2858      H2862   1.108       .  S
C2858      H2863   1.101       .  S
C2858      H2864   1.111       .  S
C2865      C2866   1.408       .  A
C2865      C2870   1.412       .  A
C2865      H2872   1.084       .  S
C2866      C2867   1.416       .  A
C2867      C2868   1.395       .  A
C2867      C2874   1.512       .  S
C2868      C2869   1.403       .  A
C2868      H2873   1.083       .  S
C2869      C2870   1.416       .  A
C2870      C2871   1.505       .  S
C2871      H2875   1.111       .  S
C2871      H2876   1.110       .  S
C2871      H2877   1.110       .  S
C2874      H2878   1.110       .  S
C2874      H2879   1.108       .  S
C2874      H2880   1.111       .  S
C2881      C2882   1.403       .  A
C2881      C2886   1.403       .  A
C2881      H2888   1.080       .  S
C2882      C2883   1.407       .  A
C2883      C2884   1.389       .  A
C2883      C2890   1.501       .  S
C2884      C2885   1.397       .  A
C2884      H2889   1.084       .  S
C2885      C2886   1.407       .  A
C2886      C2887   1.504       .  S
C2887      H2891   1.111       .  S
C2887      H2892   1.110       .  S
C2887      H2893   1.110       .  S
C2890      H2894   1.110       .  S
C2890      H2895   1.103       .  S
C2890      H2896   1.111       .  S
C2897      C2898   1.405       .  A
C2897      C2902   1.406       .  A
C2897      H2904   1.081       .  S
C2898      C2899   1.408       .  A
C2899      C2900   1.406       .  A
C2899      C2906   1.506       .  S
C2900      C2901   1.404       .  A
C2900      H2905   1.082       .  S
C2901      C2902   1.408       .  A
C2902      C2903   1.505       .  S
C2903      H2907   1.111       .  S
C2903      H2908   1.111       .  S
C2903      H2909   1.110       .  S
C2906      H2910   1.110       .  S
C2906      H2911   1.111       .  S
C2906      H2912   1.107       .  S
C2913      C2914   1.403       .  A
C2913      C2918   1.393       .  A
C2913      H2920   1.083       .  S
C2914      C2915   1.418       .  A
C2915      C2916   1.416       .  A
C2915      C2922   1.507       .  S
C2916      C2917   1.411       .  A
C2916      H2921   1.083       .  S
C2917      C2918   1.424       .  A
C2918      C2919   1.515       .  S
C2919      H2923   1.111       .  S
C2919      H2924   1.107       .  S
C2919      H2925   1.110       .  S
C2922      H2926   1.111       .  S
C2922      H2927   1.110       .  S
C2922      H2928   1.111       .  S
C2929      C2930   1.407       .  A
C2929      C2934   1.410       .  A
C2929      H2936   1.084       .  S
C2930      C2931   1.417       .  A
C2931      C2932   1.400       .  A
C2931      C2938   1.504       .  S
C2932      C2933   1.397       .  A
C2932      H2937   1.085       .  S
C2933      C2934   1.410       .  A
C2934      C2935   1.504       .  S
C2935      H2939   1.111       .  S
C2935      H2940   1.110       .  S
C2935      H2941   1.110       .  S
C2938      H2942   1.104       .  S
C2938      H2943   1.109       .  S
C2938      H2944   1.111       .  S
C2945      C2946   1.399       .  A
C2945      C2950   1.397       .  A
C2945      H2952   1.084       .  S
C2946      C2947   1.417       .  A
C2947      C2948   1.403       .  A
C2947      C2954   1.508       .  S
C2948      C2949   1.405       .  A
C2948      H2953   1.084       .  S
C2949      C2950   1.424       .  A
C2950      C2951   1.510       .  S
C2951      H2955   1.111       .  S
C2951      H2956   1.107       .  S
C2951      H2957   1.110       .  S
C2954      H2958   1.108       .  S
C2954      H2959   1.110       .  S
C2954      H2960   1.111       .  S
C2961      C2962   1.403       .  A
C2961      C2966   1.411       .  A
C2961      H2968   1.084       .  S
C2962      C2963   1.418       .  A
C2963      C2964   1.402       .  A
C2963      C2970   1.505       .  S
C2964      C2965   1.401       .  A
C2964      H2969   1.084       .  S
C2965      C2966   1.420       .  A
C2966      C2967   1.501       .  S
C2967      H2971   1.111       .  S
C2967      H2972   1.110       .  S
C2967      H2973   1.106       .  S
C2970      H2974   1.109       .  S
C2970      H2975   1.110       .  S
C2970      H2976   1.111       .  S
