geometry optimzed in LAMMPS
_audit_creation_date              2020-11-30 
_audit_creation_method            'lammps2cif' 
_symmetry_space_group_name_H-M    'P1' 
_symmetry_Int_Tables_number       1 
_symmetry_cell_setting            triclinic 
loop_ 
_symmetry_equiv_pos_as_xyz 
  x,y,z 
_cell_length_a                    35.96241743 
_cell_length_b                    33.069650974035866 
_cell_length_c                    34.75729488670324 
_cell_angle_alpha                 92.52308191447226 
_cell_angle_beta                  86.21985458443399 
_cell_angle_gamma                 110.82057053218782 
loop_ 
_atom_site_label 
_atom_site_type_symbol 
_atom_site_fract_x 
_atom_site_fract_y 
_atom_site_fract_z 
_atom_site_charge 
N1          N  0.87035469  0.71379747  0.68870768    -0.03100
C2          C  0.88321721  0.74466287  0.71740509    -0.00500
C3          C  0.85638299  0.76567736  0.72490327    -0.23400
C4          C  0.82684066  0.74899045  0.69986535    -0.23600
C5          C  0.83526717  0.71691621  0.67839080    -0.00600
H6          H  0.85845851  0.79111896  0.74625685     0.13200
H7          H  0.80131227  0.75872983  0.69789085     0.13200
N8          N  0.76279567  0.88352355  0.33761950    -0.03100
C9          C  0.79797941  0.90207385  0.31689029    -0.00500
C10         C  0.81672807  0.94416807  0.32984896    -0.23400
C11         C  0.79328979  0.95158629  0.35998831    -0.23600
C12         C  0.76018610  0.91429611  0.36400396    -0.00600
H13         H  0.84458616  0.96715874  0.31845208     0.13200
H14         H  0.79905125  0.98156316  0.37641507     0.13200
N15         N  0.34808964  0.24767335  0.73493168    -0.03100
C16         C  0.31916506  0.24549378  0.76325660    -0.00500
C17         C  0.31334948  0.28460818  0.76716139    -0.23400
C18         C  0.33949283  0.31197116  0.74115836    -0.23600
C19         C  0.35989652  0.28860615  0.72109628    -0.00600
H20         H  0.29152001  0.29208724  0.78621551     0.13200
H21         H  0.34179997  0.34480527  0.73585095     0.13200
O22         O  0.58043212  0.58039955  0.50999828    -0.74000
O23         O  0.48924440  0.52711630  0.44903740    -0.74100
O24         O  0.51382528  0.50796066  0.51497528    -0.74100
O25         O  0.55477266  0.59930361  0.44414249    -0.74200
O26         O  0.58883052  0.56410006  0.41100183    -0.74100
O27         O  0.54592043  0.47011096  0.48162739    -0.74100
O28         O  0.52260626  0.49105186  0.41490147    -0.74100
O29         O  0.61254283  0.54260958  0.47660742    -0.74100
Ni30       Ni  0.53344209  0.55497328  0.48075159     1.25400
Ni31       Ni  0.56857426  0.51554928  0.44478702     1.25400
C32         C  0.61173926  0.57055299  0.50299487     0.88100
C33         C  0.49110556  0.50028497  0.42189277     0.88100
C34         C  0.52267068  0.47386286  0.51009434     0.88100
C35         C  0.57919835  0.59781619  0.41632145     0.88300
N36         N  0.23012296  0.33267168  0.24885033    -0.03100
C37         C  0.21901943  0.31320138  0.21363537    -0.00500
C38         C  0.24989457  0.33107999  0.18626809    -0.23400
C39         C  0.28157454  0.35910778  0.20525630    -0.23600
C40         C  0.26893523  0.35908976  0.24350579    -0.00600
H41         H  0.25107181  0.32045759  0.15645179     0.13200
H42         H  0.31142481  0.37521911  0.19300264     0.13200
N43         N  0.23434117  0.88541137  0.34628398    -0.03100
C44         C  0.23167851  0.90658616  0.31393817    -0.00500
C45         C  0.25854766  0.94855083  0.31457441    -0.23400
C46         C  0.27924017  0.95371828  0.34698513    -0.23600
C47         C  0.26392015  0.91534108  0.36656113    -0.00600
H48         H  0.26311685  0.97279395  0.29305496     0.13200
H49         H  0.30306192  0.98278665  0.35565754     0.13200
N50         N  0.89389693  0.14746983  0.68789135    -0.03100
C51         C  0.91644569  0.12874462  0.70565744    -0.00500
C52         C  0.95463201  0.14213726  0.68860790    -0.23400
C53         C  0.95633712  0.17038326  0.66034427    -0.23600
C54         C  0.91904879  0.17329692  0.66025485    -0.00600
H55         H  0.97965197  0.13499410  0.69812030     0.13200
H56         H  0.98264694  0.18893454  0.64321021     0.13200
O57         O  0.03851521  0.54622345  0.53212363    -0.74000
O58         O  0.09696488  0.49056599  0.46634870    -0.74100
O59         O  0.09607436  0.57306295  0.47473356    -0.74100
O60         O  0.03940390  0.46541177  0.52393443    -0.74200
O61         O  0.99278288  0.44959403  0.48088690    -0.74100
O62         O  0.05064874  0.55744968  0.43107882    -0.74100
O63         O  0.05044689  0.47510193  0.42330812    -0.74100
O64         O  0.99213026  0.53103864  0.48886625    -0.74100
Ni65       Ni  0.06949838  0.51944735  0.50065268     1.25400
Ni66       Ni  0.01991524  0.50288548  0.45442809     1.25400
C67         C  0.00512686  0.54668751  0.52181255     0.88100
C68         C  0.08290826  0.47272164  0.43432051     0.88100
C69         C  0.08295359  0.58357568  0.44478340     0.88100
C70         C  0.00658265  0.43993793  0.51087056     0.88300
O71         O  0.50159270  0.02758605  0.54856643    -0.74000
O72         O  0.59796572  0.07440027  0.60219471    -0.74100
O73         O  0.57403239  0.01859869  0.54255654    -0.74100
O74         O  0.52536618  0.08315663  0.60872950    -0.74200
O75         O  0.50276595  0.02807386  0.64881677    -0.74100
O76         O  0.55260409  0.96380387  0.58339707    -0.74100
O77         O  0.57595275  0.02088139  0.64333346    -0.74100
O78         O  0.47963353  0.97149480  0.58726270    -0.74100
Ni79       Ni  0.55042110  0.05284195  0.57415905     1.25400
Ni80       Ni  0.52680369  0.99410961  0.61723314     1.25400
C81         C  0.47494473  0.99135008  0.55798360     0.88100
C82         C  0.60369316  0.05541777  0.63131785     0.88100
C83         C  0.57206144  0.98107159  0.55259045     0.88100
C84         C  0.50579470  0.06621459  0.63967989     0.88300
O85         O  0.13482633  0.03666952  0.96830956    -0.80500
O86         O  0.99438526  0.94235676  0.08407667    -0.65200
O87         O  0.07415504  0.96497379  0.00237097    -1.11800
C88         C  0.97682505  0.99430988  0.93378630     1.06400
O89         O  0.94792050  0.90093167  0.04626985    -0.78400
O90         O  0.96680704  0.89237113  0.97071608    -0.66000
Ni91       Ni  0.12831571  0.00015717  0.01198040     1.34900
C92         C  0.99348282  0.89737528  0.94380090     0.85100
O93         O  0.06579660  0.93549112  0.07901287    -0.79000
O94         O  0.12896410  0.96740012  0.05630976    -0.89200
C95         C  0.95966849  0.91546025  0.07948695     0.84700
O96         O  0.11800951  0.04320278  0.04506262    -0.67400
O97         O  0.95171624  0.96580178  0.95534988    -0.86700
C98         C  0.08807314  0.04352991  0.06647269     0.85500
C99         C  0.10315550  0.94472468  0.08111713     1.07100
H100        H  0.00356904  0.99957822  0.02018873     0.38900
O101        O  0.00579449  0.97284010  0.01042682    -1.09400
O102        O  0.02468547  0.93127281  0.94115954    -0.66000
Ni103      Ni  0.04497962  0.98633956  0.96891952     1.26300
O104        O  0.05503535  0.01189976  0.06749410    -0.66300
O105        O  0.01435764  0.00791751  0.93774685    -0.78500
C106        C  0.12116697  0.02815888  0.93490176     0.84900
O107        O  0.08647008  0.00164315  0.92936108    -0.65700
Ni108      Ni  0.95289538  0.93480830  0.00101260     1.27400
Ni109      Ni  0.03547352  0.95413839  0.04474205     1.26100
H110        H  0.07439808  0.93716214  0.99221678     0.39400
C111        C  0.96146626  0.01175956  0.90202716     0.01700
C112        C  0.97853832  0.01279965  0.86406491     0.04500
C113        C  0.96499846  0.03061068  0.83417359    -0.11500
C114        C  0.93349131  0.04634585  0.84155648     0.23800
C115        C  0.91521701  0.04361870  0.87893162    -0.12100
C116        C  0.92927348  0.02673665  0.90915271     0.05200
C117        C  0.92146517  0.06811337  0.81040952     0.27700
C118        C  0.93847172  0.11330797  0.80729203    -0.12800
C119        C  0.93153193  0.13373053  0.77521967     0.05800
C120        C  0.90895240  0.10903619  0.74472596    -0.08700
C121        C  0.89019663  0.06384102  0.74916339     0.06600
C122        C  0.89572953  0.04369440  0.78227984    -0.13100
Br123      Br  0.87120959  0.06378413  0.88854813    -0.05200
Br124      Br  0.01902483  0.98763484  0.85214373     0.00400
Br125      Br  0.95663464  0.19566953  0.77179535     0.00900
Br126      Br  0.87024277  0.98204352  0.78827760    -0.03500
Br127      Br  0.90543247  0.02641939  0.96060723     0.01000
Br128      Br  0.99011278  0.03424415  0.78296736    -0.02800
Br129      Br  0.97442839  0.14678639  0.84544880    -0.03700
Br130      Br  0.86000460  0.02824500  0.70887009     0.00300
C131        C  0.85076852  0.13124259  0.68686579     0.01700
C132        C  0.82668900  0.14489426  0.71430552     0.04500
C133        C  0.78549675  0.13384288  0.70917852    -0.11500
C134        C  0.76797174  0.10859719  0.67688935     0.23800
C135        C  0.79148452  0.09287023  0.65076205    -0.12100
C136        C  0.83226953  0.10314302  0.65628776     0.05200
C137        C  0.72479211  0.09786843  0.67024472     0.27700
C138        C  0.69632147  0.05876136  0.68329939    -0.12800
C139        C  0.65616920  0.04609477  0.67335346     0.05800
C140        C  0.64398046  0.07238393  0.64912028    -0.08700
C141        C  0.67272152  0.11356482  0.63868502     0.06600
C142        C  0.71269360  0.12567749  0.64891470    -0.13100
Br143      Br  0.76778647  0.05771787  0.60676419    -0.05200
Br144      Br  0.84917573  0.17654212  0.75988987     0.00400
Br145      Br  0.61957199  0.99181160  0.69317871     0.00900
Br146      Br  0.75200630  0.18019987  0.63262747    -0.03500
Br147      Br  0.86171890  0.07527221  0.62363833     0.01000
Br148      Br  0.75282779  0.15355488  0.74599560    -0.02800
Br149      Br  0.71339296  0.02174761  0.71383610    -0.03700
Br150      Br  0.65908091  0.15537737  0.61088636     0.00300
C151        C  0.91237370  0.20754689  0.63789997     0.01700
C152        C  0.91358445  0.20508072  0.59699656     0.04500
C153        C  0.91730766  0.24150734  0.57540804    -0.11500
C154        C  0.92425287  0.28189339  0.59396928     0.23800
C155        C  0.92154063  0.28458958  0.63443681    -0.12100
C156        C  0.91598904  0.24778822  0.65631322     0.05200
C157        C  0.94425754  0.32195460  0.57167204     0.27700
C158        C  0.98564591  0.33493426  0.56293021    -0.12800
C159        C  0.00567524  0.37276610  0.54218650     0.05800
C160        C  0.98468521  0.39883307  0.53092003    -0.08700
C161        C  0.94322945  0.38610882  0.54022984     0.06600
C162        C  0.92300661  0.34734341  0.55999372    -0.13100
Br163      Br  0.93009142  0.34021824  0.65961841    -0.05200
Br164      Br  0.91871800  0.15557118  0.56928074     0.00400
Br165      Br  0.06181369  0.38755119  0.52820392     0.00900
Br166      Br  0.86633198  0.32895364  0.57158665    -0.03500
Br167      Br  0.92260011  0.25606521  0.71078039     0.01000
Br168      Br  0.91756636  0.23780318  0.51977245    -0.02800
Br169      Br  0.01521373  0.30091902  0.58004367    -0.03700
Br170      Br  0.91438553  0.42303918  0.52869394     0.00300
C171        C  0.11777384  0.93053403  0.11526196     0.01700
C172        C  0.14152043  0.96194450  0.14101935     0.04500
C173        C  0.15461701  0.94918732  0.17417025    -0.11500
C174        C  0.14556114  0.90494058  0.18124941     0.23800
C175        C  0.12202302  0.87347388  0.15552010    -0.12100
C176        C  0.10789652  0.88622505  0.12277729     0.05200
C177        C  0.16388161  0.89263028  0.21413300     0.27700
C178        C  0.20390424  0.89556181  0.20991952    -0.12800
C179        C  0.22499751  0.89516686  0.24256547     0.05800
C180        C  0.20596066  0.89063337  0.28015736    -0.08700
C181        C  0.16474407  0.88385359  0.28370201     0.06600
C182        C  0.14385562  0.88479711  0.25080579    -0.13100
Br183      Br  0.10994535  0.81305275  0.16491532    -0.05200
Br184      Br  0.15645922  0.02283820  0.13116191     0.00400
Br185      Br  0.28157666  0.90610186  0.23539795     0.00900
Br186      Br  0.08855954  0.87938354  0.25611367    -0.03500
Br187      Br  0.07720402  0.84315984  0.08683222     0.01000
Br188      Br  0.18533261  0.99251511  0.21013916    -0.03400
Br189      Br  0.23081275  0.90439654  0.15931106    -0.03700
Br190      Br  0.13765315  0.87946838  0.33367998     0.00300
C191        C  0.28049855  0.91149474  0.40428650     0.01700
C192        C  0.28283906  0.94373425  0.43352223     0.04500
C193        C  0.30989238  0.95143511  0.46298697    -0.11500
C194        C  0.33526949  0.92751315  0.46369996     0.23800
C195        C  0.33066519  0.89296821  0.43700824    -0.12100
C196        C  0.30379489  0.88520286  0.40724062     0.05200
C197        C  0.37055558  0.94278995  0.48831573     0.27700
C198        C  0.40745314  0.97025926  0.47248617    -0.12800
C199        C  0.44159592  0.98390644  0.49441006     0.05800
C200        C  0.43888365  0.97284283  0.53394329    -0.08700
C201        C  0.40135216  0.94508040  0.54968258     0.06600
C202        C  0.36770742  0.92988291  0.52676659    -0.13100
Br203      Br  0.36410816  0.85874660  0.43958290    -0.05200
Br204      Br  0.25223353  0.98128359  0.43142566     0.00400
Br205      Br  0.49223713  0.01474348  0.46783471     0.00900
Br206      Br  0.31710183  0.89145260  0.54782473    -0.03500
Br207      Br  0.30414331  0.84277729  0.36784711     0.01000
Br208      Br  0.31487380  0.99747249  0.50069611    -0.02800
Br209      Br  0.41087803  0.98974499  0.42025301    -0.03700
Br210      Br  0.39439075  0.92765952  0.60265633     0.00300
C211        C  0.21052473  0.84135301  0.35741301     0.01700
C212        C  0.21133705  0.80521296  0.33423186     0.04500
C213        C  0.18978043  0.76262679  0.34633066    -0.11500
C214        C  0.16757126  0.75544643  0.38183032     0.23800
C215        C  0.16610880  0.79098132  0.40478581    -0.12100
C216        C  0.18684471  0.83356414  0.39245127     0.05200
C217        C  0.14651038  0.71054782  0.39572310     0.27700
C218        C  0.10616032  0.68864555  0.38871980    -0.12800
C219        C  0.08561161  0.64692618  0.40342538     0.05800
C220        C  0.10525866  0.62672632  0.42638961    -0.08700
C221        C  0.14649502  0.64920633  0.43251157     0.06600
C222        C  0.16671415  0.69054042  0.41704049    -0.13100
Br223      Br  0.13579508  0.78086809  0.45365570    -0.05200
Br224      Br  0.24430990  0.81267220  0.28741313     0.00400
Br225      Br  0.03021118  0.61970347  0.39197638     0.00900
Br226      Br  0.22260541  0.72081932  0.42529359    -0.03500
Br227      Br  0.17989004  0.88052797  0.42286246     0.01000
Br228      Br  0.19137280  0.71355460  0.31492235    -0.02800
Br229      Br  0.07903388  0.71697149  0.35932396    -0.03700
Br230      Br  0.17734993  0.62481972  0.46131151     0.00300
C231        C  0.18942327  0.26797859  0.20670607     0.01700
C232        C  0.20413278  0.23451212  0.19418598     0.04500
C233        C  0.17881076  0.19519005  0.17848472    -0.11500
C234        C  0.13913697  0.18936021  0.17212636     0.23800
C235        C  0.12310290  0.22022593  0.18707129    -0.12100
C236        C  0.14775950  0.25887653  0.20515976     0.05200
C237        C  0.11720145  0.15390580  0.14493940     0.27700
C238        C  0.12582418  0.15986479  0.10499006    -0.12800
C239        C  0.11415563  0.12422414  0.07899106     0.05800
C240        C  0.09308835  0.08204837  0.09264405    -0.08700
C241        C  0.08122084  0.07684546  0.13247556     0.06600
C242        C  0.09346242  0.11269838  0.15843628    -0.13100
Br243      Br  0.06753458  0.20993006  0.18082572    -0.05200
Br244      Br  0.25978034  0.24211838  0.19432755     0.00400
Br245      Br  0.12787863  0.13367230  0.02460232     0.00900
Br246      Br  0.08014078  0.10520278  0.21296558    -0.03500
Br247      Br  0.12310143  0.29853245  0.22555206     0.01000
Br248      Br  0.19894024  0.14951295  0.16297603    -0.02800
Br249      Br  0.15596338  0.21705945  0.08627752    -0.03700
Br250      Br  0.05178168  0.02027725  0.15289124     0.00300
C251        C  0.20431162  0.34598300  0.27618359     0.01700
C252        C  0.20001891  0.33356173  0.31496640     0.04500
C253        C  0.18035821  0.35222441  0.34299984    -0.11500
C254        C  0.16364409  0.38241154  0.33215482     0.23800
C255        C  0.16724437  0.39436095  0.29335830    -0.12100
C256        C  0.18857961  0.37751012  0.26576440     0.05200
C257        C  0.14352579  0.40327051  0.36133388     0.27700
C258        C  0.10204669  0.38522081  0.36909441    -0.12800
C259        C  0.08238867  0.40729816  0.39364004     0.05800
C260        C  0.10400744  0.44843508  0.40983894    -0.08700
C261        C  0.14575374  0.46610742  0.40219172     0.06600
C262        C  0.16539296  0.44333520  0.37852863    -0.13100
Br263      Br  0.14348874  0.43485598  0.27827300    -0.05200
Br264      Br  0.22223707  0.29191796  0.32961634     0.00400
Br265      Br  0.02597959  0.37987352  0.40590128     0.00900
Br266      Br  0.22240521  0.46749950  0.36850125    -0.03500
Br267      Br  0.19723465  0.39941169  0.21389107     0.01000
Br268      Br  0.17759168  0.33794569  0.39651718    -0.02800
Br269      Br  0.07220133  0.33056537  0.34502576    -0.03700
Br270      Br  0.17622628  0.52302903  0.42130952     0.00300
C271        C  0.29702971  0.37778822  0.27488300     0.01700
C272        C  0.30511149  0.42068166  0.28885237     0.04500
C273        C  0.33438991  0.43889148  0.31595515    -0.11500
C274        C  0.35684107  0.41507059  0.32823523     0.23800
C275        C  0.34885392  0.37234333  0.31469947    -0.12100
C276        C  0.31922718  0.35385440  0.28813727     0.05200
C277        C  0.39121530  0.43636079  0.35256139     0.27700
C278        C  0.42802207  0.46214524  0.33508892    -0.12800
C279        C  0.46047003  0.48364604  0.35786756     0.05800
C280        C  0.45640738  0.47923906  0.39826604    -0.08700
C281        C  0.41958414  0.45321993  0.41574756     0.06600
C282        C  0.38717225  0.43145078  0.39285145    -0.13100
Br283      Br  0.37982576  0.33981073  0.33159932    -0.05200
Br284      Br  0.27896501  0.45627947  0.26902230     0.00400
Br285      Br  0.50985757  0.52089043  0.33370093     0.00900
Br286      Br  0.33741802  0.39409466  0.41635780    -0.03500
Br287      Br  0.31126544  0.29634794  0.26871404     0.01000
Br288      Br  0.34510893  0.49725176  0.33554941    -0.02800
Br289      Br  0.43394192  0.46755626  0.27971180    -0.03700
Br290      Br  0.41378499  0.44622631  0.47092001     0.00300
C291        C  0.29358247  0.20676302  0.78536079     0.01700
C292        C  0.26649462  0.17078485  0.76612107     0.04500
C293        C  0.23826930  0.13698261  0.78725188    -0.11500
C294        C  0.23624556  0.13916732  0.82774666     0.23800
C295        C  0.26316504  0.17456525  0.84721707    -0.12100
C296        C  0.29072713  0.20894454  0.82630180     0.05200
C297        C  0.20360174  0.10654024  0.85019679     0.27700
C298        C  0.16821581  0.11444413  0.86093459    -0.12800
C299        C  0.13965038  0.08697708  0.88689371     0.05800
C300        C  0.14653087  0.05168780  0.90218299    -0.08700
C301        C  0.18052273  0.04209312  0.88936746     0.06600
C302        C  0.20908520  0.06952703  0.86341418    -0.13100
Br303      Br  0.26100358  0.17636594  0.90295444    -0.05200
Br304      Br  0.26245377  0.17072839  0.71133832     0.00400
Br305      Br  0.09232718  0.09914282  0.90334705     0.00900
Br306      Br  0.25660872  0.05774331  0.84721940    -0.03500
Br307      Br  0.32127109  0.26045024  0.85466292     0.01000
Br308      Br  0.20059085  0.08852079  0.76099227    -0.02800
Br309      Br  0.15997001  0.16420680  0.84150109    -0.03700
Br310      Br  0.18800464  0.99156312  0.90795454     0.00300
C311        C  0.38514601  0.30521698  0.68536060     0.01700
C312        C  0.42608110  0.31093400  0.68223586     0.04500
C313        C  0.44934736  0.32883897  0.64877038    -0.11500
C314        C  0.43313664  0.34556805  0.62029044     0.23800
C315        C  0.39235487  0.33967013  0.62295332    -0.12100
C316        C  0.36819059  0.31853797  0.65475853     0.05200
C317        C  0.46007312  0.37637735  0.59204894     0.27700
C318        C  0.48032699  0.41930470  0.60440935    -0.12800
C319        C  0.50364348  0.45011336  0.57786538     0.05800
C320        C  0.50504059  0.43892615  0.53822604    -0.08700
C321        C  0.48566302  0.39552588  0.52594119     0.06600
C322        C  0.46391185  0.36411980  0.55307401    -0.13100
Br323      Br  0.37017987  0.36319087  0.58415323    -0.05200
Br324      Br  0.45236410  0.30132646  0.72545411     0.00400
Br325      Br  0.53424679  0.50764032  0.59642171     0.00900
Br326      Br  0.43835158  0.30455815  0.53703687    -0.03500
Br327      Br  0.31162440  0.30799583  0.65582659     0.01000
Br328      Br  0.50442629  0.33347553  0.64266700    -0.02800
Br329      Br  0.47448013  0.43656056  0.65769010    -0.03700
Br330      Br  0.48584316  0.37939352  0.47189432     0.00300
C331        C  0.48551958  0.09090920  0.66418252     0.01700
C332        C  0.44659031  0.07011785  0.68080803     0.04500
C333        C  0.42471372  0.09494859  0.69717619    -0.11500
C334        C  0.44130809  0.14031469  0.69682623     0.23800
C335        C  0.48125999  0.16104552  0.68389158    -0.12100
C336        C  0.50360491  0.13639793  0.66822356     0.05200
C337        C  0.41568421  0.16600917  0.70722294     0.27700
C338        C  0.39510068  0.17635396  0.67842574    -0.12800
C339        C  0.37042267  0.20057383  0.68780769     0.05800
C340        C  0.36765548  0.21654029  0.72605611    -0.08700
C341        C  0.38898373  0.20609499  0.75467230     0.06600
C342        C  0.41181290  0.17985970  0.74546479    -0.13100
Br343      Br  0.50471442  0.22334052  0.68631536    -0.05200
Br344      Br  0.42128733  0.00800539  0.67968933     0.00400
Br345      Br  0.34103889  0.21104349  0.64739300     0.00900
Br346      Br  0.43936625  0.16407032  0.78481319    -0.03500
Br347      Br  0.55936812  0.16525644  0.65373185     0.01000
Br348      Br  0.37105268  0.06719481  0.71862433    -0.02800
Br349      Br  0.40177298  0.15786148  0.62569234    -0.03700
Br350      Br  0.39340113  0.23325993  0.80494827     0.00300
C351        C  0.93222712  0.90183309  0.11351570     0.01700
C352        C  0.91600070  0.85804387  0.12413131     0.04500
C353        C  0.89117027  0.84640522  0.15795125    -0.11500
C354        C  0.88264777  0.87855812  0.18080231     0.23800
C355        C  0.89781590  0.92203923  0.16935942    -0.12100
C356        C  0.92243873  0.93361026  0.13574995     0.05200
C357        C  0.85755872  0.86803155  0.21695614     0.27700
C358        C  0.81695854  0.86167609  0.21600364    -0.12800
C359        C  0.79621933  0.86998352  0.24930610     0.05800
C360        C  0.81554785  0.88243597  0.28442789    -0.08700
C361        C  0.85554683  0.88430913  0.28580073     0.06600
C362        C  0.87614027  0.87651150  0.25218365    -0.13100
Br363      Br  0.88457204  0.96595515  0.19974942    -0.05200
Br364      Br  0.92872362  0.81441825  0.09315342     0.00400
Br365      Br  0.74488184  0.87322739  0.24304237     0.00900
Br366      Br  0.93149713  0.88241206  0.25290522    -0.03500
Br367      Br  0.94118102  0.99289934  0.11914312     0.01000
Br368      Br  0.86884060  0.78687884  0.17322531    -0.02800
Br369      Br  0.79165766  0.84736917  0.16733151    -0.03700
Br370      Br  0.88463546  0.90265362  0.33218784     0.00300
C371        C  0.72539809  0.91210432  0.39058299     0.01700
C372        C  0.71479141  0.88509567  0.42298196     0.04500
C373        C  0.68408383  0.88675128  0.44962286    -0.11500
C374        C  0.66457161  0.91601330  0.44452763     0.23800
C375        C  0.67437265  0.94231781  0.41199589    -0.12100
C376        C  0.70519794  0.94114999  0.38555789     0.05200
C377        C  0.63981817  0.92585268  0.47656578     0.27700
C378        C  0.59790032  0.90834780  0.47686723    -0.12800
C379        C  0.57512132  0.92486077  0.50324101     0.05800
C380        C  0.59448251  0.95869754  0.52906531    -0.08700
C381        C  0.63618149  0.97350184  0.53074000     0.06600
C382        C  0.65886185  0.95722663  0.50448796    -0.13100
Br383      Br  0.64701244  0.98214057  0.40516527    -0.05200
Br384      Br  0.74570957  0.85080783  0.43482976     0.00400
Br385      Br  0.51778196  0.90291413  0.50290334     0.00900
Br386      Br  0.71633008  0.97976590  0.50531473    -0.03500
Br387      Br  0.72045351  0.98115288  0.34335626     0.01000
Br388      Br  0.67054954  0.85167737  0.49503458    -0.02800
Br389      Br  0.57223383  0.86331943  0.44012175    -0.03700
Br390      Br  0.66251672  0.01671071  0.56856936     0.00300
C391        C  0.59849423  0.63694639  0.39218992     0.01700
C392        C  0.59830478  0.67813815  0.40602910     0.04500
C393        C  0.62564903  0.71602328  0.38993388    -0.11500
C394        C  0.64974030  0.71366773  0.35704351     0.23800
C395        C  0.64554220  0.67341691  0.33935231    -0.12100
C396        C  0.62084888  0.63498609  0.35724902     0.05200
C397        C  0.68079720  0.75387902  0.34293614     0.27700
C398        C  0.66950151  0.78553890  0.32655648    -0.12800
C399        C  0.69602358  0.82857234  0.32534384     0.05800
C400        C  0.73593917  0.83900740  0.33563533    -0.08700
C401        C  0.74831832  0.80554385  0.34739773     0.06600
C402        C  0.72042706  0.76359768  0.35261114    -0.13100
Br403      Br  0.67481282  0.67153596  0.29108870    -0.05200
Br404      Br  0.56115743  0.68547009  0.44642797     0.00400
Br405      Br  0.67565878  0.87230374  0.31178171     0.00900
Br406      Br  0.73543653  0.72056392  0.37692152    -0.03500
Br407      Br  0.61793327  0.58063898  0.33232409     0.01000
Br408      Br  0.63199069  0.77154110  0.41472109    -0.02800
Br409      Br  0.61634060  0.76995006  0.30868702    -0.03700
Br410      Br  0.80186534  0.81752006  0.36211543     0.00300
C411        C  0.98548354  0.86439020  0.91179520     0.01700
C412        C  0.01543127  0.84940176  0.89546674     0.04500
C413        C  0.00926787  0.82436905  0.86078166    -0.11500
C414        C  0.97276077  0.81319251  0.84295144     0.23800
C415        C  0.94189643  0.82545619  0.86071646    -0.12100
C416        C  0.94827042  0.85136755  0.89447705     0.05200
C417        C  0.96655835  0.79238121  0.80382862     0.27700
C418        C  0.96848185  0.81881542  0.77264641    -0.12800
C419        C  0.94431153  0.80187962  0.74135822     0.05800
C420        C  0.91993357  0.75731935  0.73975945    -0.08700
C421        C  0.92373423  0.72968281  0.76797923     0.06600
C422        C  0.94699080  0.74733166  0.80002361    -0.13100
Br423      Br  0.89101919  0.80862038  0.83723079    -0.05200
Br424      Br  0.06435755  0.86213837  0.92110731     0.00400
Br425      Br  0.93998231  0.84203265  0.70444245     0.00900
Br426      Br  0.94814579  0.71095992  0.84141877    -0.03500
Br427      Br  0.90634764  0.87189020  0.91404035     0.01000
Br428      Br  0.05097954  0.80658482  0.83684349    -0.02800
Br429      Br  0.99926566  0.87995129  0.77629917    -0.03700
Br430      Br  0.89207241  0.66907456  0.76701591     0.00300
C431        C  0.80710640  0.69033207  0.64947578     0.01700
C432        C  0.81775482  0.69328307  0.60954486     0.04500
C433        C  0.78876582  0.67330654  0.58239143    -0.11500
C434        C  0.74867497  0.65180737  0.59488199     0.23800
C435        C  0.73783841  0.64932905  0.63457668    -0.12100
C436        C  0.76670526  0.66829633  0.66172298     0.05200
C437        C  0.71710034  0.63210525  0.56693022     0.27700
C438        C  0.69782939  0.65736902  0.55098056    -0.12800
C439        C  0.66421073  0.63747201  0.52899914     0.05800
C440        C  0.64789081  0.59187106  0.52514881    -0.08700
C441        C  0.66749672  0.56674757  0.54102448     0.06600
C442        C  0.70286922  0.58700452  0.56034487    -0.13100
Br443      Br  0.68263327  0.62114808  0.65167954    -0.05200
Br444      Br  0.87051033  0.72911099  0.59160009     0.00400
Br445      Br  0.64217872  0.67309657  0.50250495     0.00900
Br446      Br  0.73195986  0.55316040  0.57843102    -0.03500
Br447      Br  0.74981528  0.66466835  0.71595541     0.01000
Br448      Br  0.80344877  0.67649903  0.52795254    -0.02800
Br449      Br  0.71696350  0.71916741  0.56017203    -0.03700
Br450      Br  0.64440844  0.50436939  0.53934689     0.00300
C451        C  0.88968962  0.68474408  0.67165937     0.01700
C452        C  0.92925080  0.70104258  0.65530744     0.04500
C453        C  0.94676169  0.67293293  0.63695379    -0.11500
C454        C  0.92356508  0.62940701  0.62966785     0.23800
C455        C  0.88443208  0.61253324  0.64600227    -0.12100
C456        C  0.86854894  0.63946528  0.66890089     0.05200
C457        C  0.93968543  0.60354983  0.60166259     0.27700
C458        C  0.94411480  0.61371260  0.56223366    -0.12800
C459        C  0.96588755  0.59567314  0.53620841     0.05800
C460        C  0.98106085  0.56489854  0.54879871    -0.08700
C461        C  0.97354606  0.55190135  0.58766410     0.06600
C462        C  0.95417366  0.57227966  0.61428431    -0.13100
Br463      Br  0.85207816  0.55296851  0.63572336    -0.05200
Br464      Br  0.95856956  0.76188518  0.65174870     0.00400
Br465      Br  0.97761587  0.61633354  0.48425712     0.00900
Br466      Br  0.94913490  0.55884113  0.66826348    -0.03500
Br467      Br  0.81928294  0.61292438  0.69839332     0.01000
Br468      Br  0.00253629  0.69425925  0.61997624    -0.02800
Br469      Br  0.92122411  0.65364609  0.54410439    -0.03700
Br470      Br  0.98817938  0.50488697  0.60432912     0.00300
loop_ 
_geom_bond_atom_site_label_1 
_geom_bond_atom_site_label_2 
_geom_bond_distance 
_geom_bond_site_symmetry_2 
_ccdc_geom_bond_type 
N1            C5   1.374       .  A
N1            C2   1.373       .  A
N1          C451   1.459       .  S
C2            C3   1.382       .  A
C2          C420   1.495       .  S
C3            C4   1.361       .  A
C3            H6   1.083       .  S
C4            C5   1.379       .  A
C4            H7   1.082       .  S
C5          C431   1.494       .  S
N8           C12   1.364       .  A
N8            C9   1.365       .  A
N8          C400   1.447       .  S
C9           C10   1.383       .  A
C9          C360   1.492       .  S
C10          C11   1.370       .  A
C10          H13   1.082       .  S
C11          C12   1.381       .  A
C11          H14   1.082       .  S
C12         C371   1.488       .  S
N15          C19   1.366       .  A
N15          C16   1.369       .  A
N15         C340   1.452       .  S
C16          C17   1.381       .  A
C16         C291   1.494       .  S
C17          C18   1.369       .  A
C17          H20   1.082       .  S
C18          C19   1.382       .  A
C18          H21   1.082       .  S
C19         C311   1.492       .  S
O22         Ni30   1.933       .  S
O22          C32   1.285       .  A
O23         Ni30   1.921       .  S
O23          C33   1.281       .  A
O24         Ni30   1.898       .  S
O24          C34   1.278       .  A
O25         Ni30   1.895       .  S
O25          C35   1.274       .  A
O26         Ni31   1.926       .  S
O26          C35   1.283       .  A
O27         Ni31   1.929       .  S
O27          C34   1.283       .  A
O28         Ni31   1.915       .  S
O28          C33   1.280       .  A
O29         Ni31   1.914       .  S
O29          C32   1.279       .  A
Ni30        Ni31   2.383       .  S
C32         C440   1.488       .  S
C33         C280   1.478       .  S
C34         C320   1.480       .  S
C35         C391   1.497       .  S
N36          C40   1.364       .  A
N36          C37   1.373       .  A
N36         C251   1.448       .  S
C37          C38   1.390       .  A
C37         C231   1.516       .  S
C38          C39   1.374       .  A
C38          H41   1.083       .  S
C39          C40   1.376       .  A
C39          H42   1.082       .  S
C40         C271   1.495       .  S
N43          C47   1.377       .  A
N43          C44   1.376       .  A
N43         C211   1.458       .  S
C44          C45   1.381       .  A
C44         C180   1.501       .  S
C45          C46   1.362       .  A
C45          H48   1.083       .  S
C46          C47   1.381       .  A
C46          H49   1.083       .  S
C47         C191   1.504       .  S
N50          C54   1.371       .  A
N50          C51   1.371       .  A
N50         C131   1.452       .  S
C51          C52   1.384       .  A
C51         C120   1.499       .  S
C52          C53   1.369       .  A
C52          H55   1.083       .  S
C53          C54   1.378       .  A
C53          H56   1.082       .  S
C54         C151   1.497       .  S
O57         Ni65   1.918       .  S
O57          C67   1.281       .  A
O58         Ni65   1.930       .  S
O58          C68   1.283       .  A
O59         Ni65   1.921       .  S
O59          C69   1.281       .  A
O60         Ni65   1.912       .  S
O60          C70   1.280       .  A
O61         Ni66   1.925   1_655  S
O61          C70   1.282   1_655  A
O62         Ni66   1.931       .  S
O62          C69   1.283       .  A
O63         Ni66   1.922       .  S
O63          C68   1.282       .  A
O64         Ni66   1.924   1_655  S
O64          C67   1.282   1_655  A
Ni65        Ni66   2.381       .  S
C67         C460   1.485   1_455  S
C68         C260   1.494       .  S
C69         C220   1.512       .  S
C70         C160   1.484   1_455  S
O71         Ni79   1.916       .  S
O71          C81   1.280   1_545  A
O72         Ni79   1.917       .  S
O72          C82   1.279       .  A
O73         Ni79   1.913       .  S
O73          C83   1.280   1_545  A
O74         Ni79   1.912       .  S
O74          C84   1.280       .  A
O75         Ni80   1.916   1_545  S
O75          C84   1.279       .  A
O76         Ni80   1.914       .  S
O76          C83   1.278       .  A
O77         Ni80   1.939   1_545  S
O77          C82   1.285       .  A
O78         Ni80   1.945       .  S
O78          C81   1.287       .  A
Ni79        Ni80   2.377   1_545  S
C81         C200   1.513       .  S
C82         C140   1.519       .  S
C83         C380   1.466       .  S
C84         C331   1.485       .  S
O85         Ni91   1.931   1_556  S
O85         C106   1.272       .  A
O86        Ni109   1.891   1_655  S
O86          C95   1.265       .  A
O87         Ni91   1.923   1_565  S
O87        Ni109   1.912       .  S
O87        Ni103   1.927   1_554  S
O87         H110   0.973   1_554  S
C88         C111   1.490   1_565  S
C88         O105   1.277   1_665  A
C88          O97   1.278       .  A
O89        Ni108   1.933       .  S
O89          C95   1.270       .  A
O90        Ni108   1.905   1_556  S
O90          C92   1.267       .  A
Ni91         O94   1.928   1_545  S
Ni91         O96   1.913       .  S
C92         C411   1.491       .  S
C92         O102   1.275   1_655  A
O93        Ni109   1.924       .  S
O93          C99   1.274       .  A
O94          C99   1.274       .  A
C95         C351   1.467       .  S
O96          C98   1.271       .  A
O97        Ni108   1.938   1_556  S
C98         C240   1.496       .  S
C98         O104   1.273       .  A
C99         C171   1.487       .  S
H100        O101   0.961       .  S
O101       Ni109   1.910       .  S
O101       Ni103   1.899   1_554  S
O101       Ni108   1.911   1_455  S
O102       Ni103   1.942       .  S
Ni103       O107   1.904   1_565  S
Ni103       O105   1.918   1_565  S
O104       Ni109   1.938   1_545  S
C106        C300   1.472       .  S
C106        O107   1.266       .  A
C111        C112   1.415       .  A
C111        C116   1.416       .  A
C112        C113   1.410       .  A
C112       Br124   1.933   1_645  S
C113        C114   1.411       .  A
C113       Br128   1.931       .  S
C114        C115   1.408       .  A
C114        C117   1.493       .  S
C115        C116   1.412       .  A
C115       Br123   1.929       .  S
C116       Br127   1.930       .  S
C117        C118   1.405       .  A
C117        C122   1.408       .  A
C118        C119   1.408       .  A
C118       Br129   1.933       .  S
C119        C120   1.420       .  A
C119       Br125   1.928       .  S
C120        C121   1.415       .  A
C121        C122   1.414       .  A
C121       Br130   1.916       .  S
C122       Br126   1.930   1_545  S
C131        C132   1.412       .  A
C131        C136   1.415       .  A
C132        C133   1.416       .  A
C132       Br144   1.919       .  S
C133        C134   1.411       .  A
C133       Br148   1.928       .  S
C134        C135   1.407       .  A
C134        C137   1.496       .  S
C135        C136   1.407       .  A
C135       Br143   1.931       .  S
C136       Br147   1.924       .  S
C137        C138   1.406       .  A
C137        C142   1.404       .  A
C138        C139   1.415       .  A
C138       Br149   1.933       .  S
C139        C140   1.429       .  A
C139       Br145   1.934   1_545  S
C140        C141   1.431       .  A
C141        C142   1.414       .  A
C141       Br150   1.936       .  S
C142       Br146   1.935       .  S
C151        C152   1.419       .  A
C151        C156   1.418       .  A
C152        C153   1.408       .  A
C152       Br164   1.922       .  S
C153        C154   1.404       .  A
C153       Br168   1.932       .  S
C154        C155   1.405       .  A
C154        C157   1.487       .  S
C155        C156   1.410       .  A
C155       Br163   1.933       .  S
C156       Br167   1.919       .  S
C157        C158   1.411       .  A
C157        C162   1.407       .  A
C158        C159   1.405   1_655  A
C158       Br169   1.935   1_655  S
C159        C160   1.413   1_455  A
C159       Br165   1.934       .  S
C160        C161   1.417       .  A
C161        C162   1.412       .  A
C161       Br170   1.930       .  S
C162       Br166   1.928       .  S
C171        C172   1.414       .  A
C171        C176   1.412       .  A
C172        C173   1.408       .  A
C172       Br184   1.931   1_565  S
C173        C174   1.411       .  A
C173       Br188   1.933       .  S
C174        C175   1.411       .  A
C174        C177   1.496       .  S
C175        C176   1.415       .  A
C175       Br183   1.926       .  S
C176       Br187   1.927       .  S
C177        C178   1.406       .  A
C177        C182   1.409       .  A
C178        C179   1.409       .  A
C178       Br189   1.933       .  S
C179        C180   1.423       .  A
C179       Br185   1.937       .  S
C180        C181   1.416       .  A
C181        C182   1.416       .  A
C181       Br190   1.920       .  S
C182       Br186   1.929       .  S
C191        C192   1.424       .  A
C191        C196   1.416       .  A
C192        C193   1.412       .  A
C192       Br204   1.936       .  S
C193        C194   1.406       .  A
C193       Br208   1.931       .  S
C194        C195   1.409       .  A
C194        C197   1.499       .  S
C195        C196   1.415       .  A
C195       Br203   1.930       .  S
C196       Br207   1.919       .  S
C197        C198   1.407       .  A
C197        C202   1.407       .  A
C198        C199   1.411       .  A
C198       Br209   1.935       .  S
C199        C200   1.426       .  A
C199       Br205   1.937   1_565  S
C200        C201   1.425       .  A
C201        C202   1.418       .  A
C201       Br210   1.927       .  S
C202       Br206   1.930       .  S
C211        C212   1.420       .  A
C211        C216   1.418       .  A
C212        C213   1.412       .  A
C212       Br224   1.920       .  S
C213        C214   1.406       .  A
C213       Br228   1.931       .  S
C214        C215   1.406       .  A
C214        C217   1.492       .  S
C215        C216   1.410       .  A
C215       Br223   1.932       .  S
C216       Br227   1.921       .  S
C217        C218   1.405       .  A
C217        C222   1.404       .  A
C218        C219   1.414       .  A
C218       Br229   1.933       .  S
C219        C220   1.428       .  A
C219       Br225   1.933       .  S
C220        C221   1.429       .  A
C221        C222   1.412       .  A
C221       Br230   1.933       .  S
C222       Br226   1.935       .  S
C231        C232   1.427       .  A
C231        C236   1.424       .  A
C232        C233   1.407       .  A
C232       Br244   1.927       .  S
C233        C234   1.401       .  A
C233       Br248   1.937       .  S
C234        C235   1.406       .  A
C234        C237   1.494       .  S
C235        C236   1.419       .  A
C235       Br243   1.930       .  S
C236       Br247   1.916       .  S
C237        C238   1.410       .  A
C237        C242   1.408       .  A
C238        C239   1.409       .  A
C238       Br249   1.932       .  S
C239        C240   1.416       .  A
C239       Br245   1.932       .  S
C240        C241   1.421       .  A
C241        C242   1.415       .  A
C241       Br250   1.932       .  S
C242       Br246   1.929       .  S
C251        C252   1.409       .  A
C251        C256   1.420       .  A
C252        C253   1.413       .  A
C252       Br264   1.921       .  S
C253        C254   1.411       .  A
C253       Br268   1.927       .  S
C254        C255   1.407       .  A
C254        C257   1.491       .  S
C255        C256   1.407       .  A
C255       Br263   1.932       .  S
C256       Br267   1.937       .  S
C257        C258   1.408       .  A
C257        C262   1.408       .  A
C258        C259   1.412       .  A
C258       Br269   1.930       .  S
C259        C260   1.418       .  A
C259       Br265   1.932       .  S
C260        C261   1.415       .  A
C261        C262   1.410       .  A
C261       Br270   1.925       .  S
C262       Br266   1.931       .  S
C271        C272   1.413       .  A
C271        C276   1.416       .  A
C272        C273   1.410       .  A
C272       Br284   1.921       .  S
C273        C274   1.408       .  A
C273       Br288   1.931       .  S
C274        C275   1.404       .  A
C274        C277   1.485       .  S
C275        C276   1.407       .  A
C275       Br283   1.933       .  S
C276       Br287   1.918       .  S
C277        C278   1.409       .  A
C277        C282   1.409       .  A
C278        C279   1.406       .  A
C278       Br289   1.932       .  S
C279        C280   1.411       .  A
C279       Br285   1.928       .  S
C280        C281   1.412       .  A
C281        C282   1.409       .  A
C281       Br290   1.930       .  S
C282       Br286   1.929       .  S
C291        C292   1.416       .  A
C291        C296   1.420       .  A
C292        C293   1.409       .  A
C292       Br304   1.919       .  S
C293        C294   1.405       .  A
C293       Br308   1.931       .  S
C294        C295   1.406       .  A
C294        C297   1.485       .  S
C295        C296   1.407       .  A
C295       Br303   1.933       .  S
C296       Br307   1.935       .  S
C297        C298   1.411       .  A
C297        C302   1.408       .  A
C298        C299   1.408       .  A
C298       Br309   1.930       .  S
C299        C300   1.408       .  A
C299       Br305   1.930       .  S
C300        C301   1.409       .  A
C301        C302   1.407       .  A
C301       Br310   1.929   1_545  S
C302       Br306   1.928       .  S
C311        C312   1.413       .  A
C311        C316   1.419       .  A
C312        C313   1.408       .  A
C312       Br324   1.922       .  S
C313        C314   1.407       .  A
C313       Br328   1.930       .  S
C314        C315   1.406       .  A
C314        C317   1.484       .  S
C315        C316   1.405       .  A
C315       Br323   1.933       .  S
C316       Br327   1.936       .  S
C317        C318   1.408       .  A
C317        C322   1.409       .  A
C318        C319   1.402       .  A
C318       Br329   1.934       .  S
C319        C320   1.413       .  A
C319       Br325   1.935       .  S
C320        C321   1.415       .  A
C321        C322   1.411       .  A
C321       Br330   1.930       .  S
C322       Br326   1.928       .  S
C331        C332   1.418       .  A
C331        C336   1.415       .  A
C332        C333   1.406       .  A
C332       Br344   1.928       .  S
C333        C334   1.404       .  A
C333       Br348   1.932       .  S
C334        C335   1.406       .  A
C334        C337   1.479       .  S
C335        C336   1.406       .  A
C335       Br343   1.929       .  S
C336       Br347   1.933       .  S
C337        C338   1.405       .  A
C337        C342   1.401       .  A
C338        C339   1.407       .  A
C338       Br349   1.934       .  S
C339        C340   1.419       .  A
C339       Br345   1.926       .  S
C340        C341   1.420       .  A
C341        C342   1.406       .  A
C341       Br350   1.919       .  S
C342       Br346   1.932       .  S
C351        C352   1.411       .  A
C351        C356   1.407       .  A
C352        C353   1.409       .  A
C352       Br364   1.928       .  S
C353        C354   1.407       .  A
C353       Br368   1.927       .  S
C354        C355   1.410       .  A
C354        C357   1.477       .  S
C355        C356   1.399       .  A
C355       Br363   1.934       .  S
C356       Br367   1.934       .  S
C357        C358   1.402       .  A
C357        C362   1.403       .  A
C358        C359   1.405       .  A
C358       Br369   1.934       .  S
C359        C360   1.417       .  A
C359       Br365   1.914       .  S
C360        C361   1.422       .  A
C361        C362   1.405       .  A
C361       Br370   1.936       .  S
C362       Br366   1.932       .  S
C371        C372   1.415       .  A
C371        C376   1.417       .  A
C372        C373   1.408       .  A
C372       Br384   1.921       .  S
C373        C374   1.405       .  A
C373       Br388   1.932       .  S
C374        C375   1.406       .  A
C374        C377   1.477       .  S
C375        C376   1.403       .  A
C375       Br383   1.933       .  S
C376       Br387   1.937       .  S
C377        C378   1.409       .  A
C377        C382   1.408       .  A
C378        C379   1.409       .  A
C378       Br389   1.927       .  S
C379        C380   1.408       .  A
C379       Br385   1.928       .  S
C380        C381   1.407       .  A
C381        C382   1.399       .  A
C381       Br390   1.925   1_565  S
C382       Br386   1.934       .  S
C391        C392   1.427       .  A
C391        C396   1.424       .  A
C392        C393   1.401       .  A
C392       Br404   1.941       .  S
C393        C394   1.405       .  A
C393       Br408   1.938       .  S
C394        C395   1.404       .  A
C394        C397   1.478       .  S
C395        C396   1.409       .  A
C395       Br403   1.931       .  S
C396       Br407   1.932       .  S
C397        C398   1.404       .  A
C397        C402   1.406       .  A
C398        C399   1.404       .  A
C398       Br409   1.932       .  S
C399        C400   1.419       .  A
C399       Br405   1.926       .  S
C400        C401   1.416       .  A
C401        C402   1.404       .  A
C401       Br410   1.923       .  S
C402       Br406   1.935       .  S
C411        C412   1.415   1_655  A
C411        C416   1.419       .  A
C412        C413   1.416       .  A
C412       Br424   1.927       .  S
C413        C414   1.409   1_455  A
C413       Br428   1.926       .  S
C414        C415   1.409       .  A
C414        C417   1.490       .  S
C415        C416   1.404       .  A
C415       Br423   1.938       .  S
C416       Br427   1.936       .  S
C417        C418   1.405       .  A
C417        C422   1.408       .  A
C418        C419   1.406       .  A
C418       Br429   1.932       .  S
C419        C420   1.423       .  A
C419       Br425   1.938       .  S
C420        C421   1.415       .  A
C421        C422   1.414       .  A
C421       Br430   1.921       .  S
C422       Br426   1.927       .  S
C431        C432   1.413       .  A
C431        C436   1.420       .  A
C432        C433   1.414       .  A
C432       Br444   1.924       .  S
C433        C434   1.410       .  A
C433       Br448   1.928       .  S
C434        C435   1.407       .  A
C434        C437   1.490       .  S
C435        C436   1.406       .  A
C435       Br443   1.934       .  S
C436       Br447   1.937       .  S
C437        C438   1.410       .  A
C437        C442   1.408       .  A
C438        C439   1.411       .  A
C438       Br449   1.930       .  S
C439        C440   1.414       .  A
C439       Br445   1.928       .  S
C440        C441   1.414       .  A
C441        C442   1.409       .  A
C441       Br450   1.930       .  S
C442       Br446   1.930       .  S
C451        C452   1.419       .  A
C451        C456   1.420       .  A
C452        C453   1.407       .  A
C452       Br464   1.916       .  S
C453        C454   1.405       .  A
C453       Br468   1.935   1_655  S
C454        C455   1.407       .  A
C454        C457   1.490       .  S
C455        C456   1.411       .  A
C455       Br463   1.930       .  S
C456       Br467   1.922       .  S
C457        C458   1.411       .  A
C457        C462   1.409       .  A
C458        C459   1.407       .  A
C458       Br469   1.932       .  S
C459        C460   1.411       .  A
C459       Br465   1.926       .  S
C460        C461   1.415       .  A
C461        C462   1.410       .  A
C461       Br470   1.932       .  S
C462       Br466   1.929       .  S
