geometry optimzed in LAMMPS
_audit_creation_date              2020-11-30 
_audit_creation_method            'lammps2cif' 
_symmetry_space_group_name_H-M    'P1' 
_symmetry_Int_Tables_number       1 
_symmetry_cell_setting            triclinic 
loop_ 
_symmetry_equiv_pos_as_xyz 
  x,y,z 
_cell_length_a                    29.01912875 
_cell_length_b                    29.75979891388605 
_cell_length_c                    43.45280742696267 
_cell_angle_alpha                 89.98719712657271 
_cell_angle_beta                  90.3536207366856 
_cell_angle_gamma                 89.93465584481476 
loop_ 
_atom_site_label 
_atom_site_type_symbol 
_atom_site_fract_x 
_atom_site_fract_y 
_atom_site_fract_z 
_atom_site_charge 
C1          C  0.50564102  0.43604118  0.76792091     0.85600
C2          C  0.04549977  0.44260306  0.74516510    -0.54700
C3          C  0.04408022  0.98192671  0.72889981     0.08500
C4          C  0.50198408  0.01162411  0.73706232     0.19500
C5          C  0.50752240  0.47823051  0.78819070    -0.55400
C6          C  0.00540223  0.01786809  0.77233764     0.08600
C7          C  0.46184944  0.44185958  0.74831257    -0.52500
C8          C  0.45902386  0.98123888  0.73186857     0.09200
H9          H  0.07446529  0.42008020  0.74323860     0.13700
H10         H  0.50143615  0.04376158  0.72428636    -0.00600
H11         H  0.50961942  0.47675778  0.81313867     0.14000
H12         H  0.43488663  0.41675609  0.74870592     0.13800
C13         C  0.29339041  0.04843409  0.63228638     0.01400
C14         C  0.29265998  0.02871781  0.66193308     0.01300
C15         C  0.24967397  0.01952810  0.67556094    -0.19200
C16         C  0.20787492  0.02887970  0.66008800     0.01400
C17         C  0.20901835  0.04804398  0.63034065     0.01300
C18         C  0.25167177  0.05871974  0.61730320    -0.19200
H19         H  0.25247450  0.07173772  0.59399439     0.03400
H20         H  0.24870830  0.00457885  0.69829308     0.03400
C21         C  0.20215387  0.02637595  0.33732864     0.01400
C22         C  0.20129053  0.04443024  0.36743710     0.01300
C23         C  0.24296566  0.05385639  0.38269632    -0.19200
C24         C  0.28567964  0.04431722  0.36934612     0.01400
C25         C  0.28694992  0.02671002  0.33916671     0.01300
C26         C  0.24516261  0.01799732  0.32348952    -0.19200
H27         H  0.24614357  0.00413394  0.30043452     0.03400
H28         H  0.24212003  0.06577354  0.40628085     0.03400
O29         O  0.46540206  0.02203379  0.96934493    -0.72700
O30         O  0.46921801  0.43319398  0.03256493    -0.72900
O31         O  0.46977638  0.02320997  0.03165444    -0.72800
O32         O  0.46469269  0.43170494  0.97063423    -0.72800
O33         O  0.03919436  0.43365718  0.96666609    -0.72700
O34         O  0.04453892  0.02040396  0.03098716    -0.72700
O35         O  0.04368226  0.42998984  0.02852244    -0.72700
O36         O  0.04020111  0.02386005  0.96931062    -0.72900
V37         V  0.46868501  0.47757093  0.00097713     1.35200
V38         V  0.04045350  0.47696926  0.99892522     1.35200
C39         C  0.00231654  0.03849653  0.95881108     0.76600
C40         C  0.50714856  0.41602594  0.04104443     0.76600
C41         C  0.50804452  0.03691196  0.04212215     0.76500
C42         C  0.00099758  0.41740403  0.95795106     0.76400
C43         C  0.51025327  0.18527117  0.12768622     0.01400
C44         C  0.50212842  0.18560978  0.15982191     0.01300
C45         C  0.49765998  0.22734284  0.17493459    -0.19200
C46         C  0.50144507  0.26849982  0.15892966     0.01400
C47         C  0.50967990  0.26758485  0.12683283     0.01300
C48         C  0.51435833  0.22611113  0.11188287    -0.19200
H49         H  0.51945631  0.22557705  0.08717432     0.03400
H50         H  0.49245058  0.22781346  0.19960365     0.03400
C51         C  0.49036907  0.43569954  0.23065004     0.85600
C52         C  0.44935645  0.44248432  0.25248587    -0.54700
C53         C  0.45043025  0.98135518  0.26925877     0.08500
C54         C  0.49314766  0.01070244  0.26222756     0.19500
C55         C  0.49051904  0.47829793  0.21072424    -0.55400
C56         C  0.49203063  0.01750053  0.22701967     0.08600
C57         C  0.03313151  0.44052767  0.25137628    -0.54900
C58         C  0.03559552  0.97976957  0.26794031     0.09200
H59         H  0.42025507  0.42015979  0.25366321     0.13700
H60         H  0.49389162  0.04263728  0.27525613    -0.00600
H61         H  0.99020675  0.47752194  0.18572929     0.14000
H62         H  0.06014630  0.41537306  0.25130507     0.13800
C63         C  0.99819928  0.26912586  0.84007465     0.01400
C64         C  0.99589377  0.26898723  0.87257656     0.01300
C65         C  0.99583788  0.22799188  0.88838658    -0.19200
C66         C  0.99824862  0.18673943  0.87290622     0.01400
C67         C  0.99962769  0.18617201  0.84026046     0.01300
C68         C  0.99950918  0.22759299  0.82437915    -0.19200
H69         H  0.00118373  0.22755547  0.79946809     0.03400
H70         H  0.99477559  0.22821858  0.91334842     0.03400
O71         O  0.04552610  0.51767210  0.52982901    -0.72700
O72         O  0.44918727  0.51648833  0.47037852    -0.72900
O73         O  0.04094815  0.51646720  0.46775894    -0.72800
O74         O  0.45376732  0.51781538  0.53241604    -0.72800
O75         O  0.45304672  0.09073068  0.53157119    -0.72700
O76         O  0.04150320  0.08939169  0.46737366    -0.72700
O77         O  0.44904846  0.08938301  0.46940288    -0.72700
O78         O  0.04550828  0.09057743  0.52953254    -0.72900
V79         V  0.49735840  0.51858874  0.50009333     1.35200
V80         V  0.49727898  0.08865254  0.49947277     1.35200
C81         C  0.06146935  0.05414630  0.54029330     0.76600
C82         C  0.43316045  0.05257121  0.45927817     0.76600
C83         C  0.05576365  0.05265057  0.45628174     0.76500
C84         C  0.43884311  0.05440281  0.54326872     0.76400
C85         C  0.03108085  0.34543937  0.17358591    -0.14300
C86         C  0.49771937  0.31152542  0.17643636     0.07900
C87         C  0.46122614  0.31824434  0.19690781    -0.14300
C88         C  0.45795742  0.35777917  0.21420498    -0.14300
C89         C  0.49129455  0.39218221  0.21150417     0.07900
C90         C  0.02777216  0.38518828  0.19074766    -0.14300
H91         H  0.06016243  0.34092068  0.15843784     0.11900
H92         H  0.43499390  0.29265770  0.19959022     0.11900
H93         H  0.42941251  0.36002350  0.22969772     0.11900
H94         H  0.05425771  0.41050098  0.18811925     0.11900
C95         C  0.46429297  0.13552726  0.19920503    -0.14300
C96         C  0.50016941  0.14321518  0.17817545     0.07900
C97         C  0.03452412  0.11024230  0.17491193    -0.14300
C98         C  0.03194854  0.06974745  0.19111524    -0.14300
C99         C  0.49564961  0.06174048  0.21155857     0.07900
C100        C  0.46217662  0.09516327  0.21587226    -0.14300
H101        H  0.43741691  0.16038583  0.20225793     0.11900
H102        H  0.06334080  0.11571866  0.15966981     0.11900
H103        H  0.05837867  0.04452895  0.18771133     0.11900
H104        H  0.43369333  0.08945497  0.23135096     0.11900
C105        C  0.03945855  0.10369274  0.93275880    -0.14300
C106        C  0.00169922  0.07446320  0.93522365     0.07900
C107        C  0.46365402  0.08056204  0.91539812    -0.14300
C108        C  0.46320971  0.11576589  0.89386514    -0.14300
C109        C  0.00045974  0.14570942  0.89225593     0.07900
C110        C  0.03858908  0.13922199  0.91177462    -0.14300
H111        H  0.06916071  0.09993049  0.94776259     0.11900
H112        H  0.43424544  0.05829424  0.91668095     0.11900
H113        H  0.43330393  0.12053350  0.87918617     0.11900
H114        H  0.06745038  0.16224768  0.91105690     0.11900
C115        C  0.45814009  0.35699594  0.92973993    -0.14300
C116        C  0.99875387  0.38200938  0.93398486     0.07900
C117        C  0.03742993  0.37173271  0.91589766    -0.14300
C118        C  0.03582856  0.33638866  0.89460970    -0.14300
C119        C  0.99572102  0.31052505  0.89133086     0.07900
C120        C  0.45682789  0.32130774  0.90885096    -0.14300
H121        H  0.42781351  0.36403479  0.94331251     0.11900
H122        H  0.06913822  0.39053168  0.91857152     0.11900
H123        H  0.06633347  0.32814216  0.88152655     0.11900
H124        H  0.42573886  0.30138076  0.90679592     0.11900
C125        C  0.04797056  0.35258652  0.06747546    -0.14300
C126        C  0.50882216  0.38015416  0.06467385     0.07900
C127        C  0.47105888  0.37231904  0.08409049    -0.14300
C128        C  0.47207698  0.33697322  0.10538803    -0.14300
C129        C  0.51069114  0.30864199  0.10742502     0.07900
C130        C  0.04871775  0.31697238  0.08844742    -0.14300
H131        H  0.07753321  0.35772263  0.05280504     0.11900
H132        H  0.44053752  0.39319115  0.08255549     0.11900
H133        H  0.44215943  0.33078725  0.11954319     0.11900
H134        H  0.07871093  0.29530259  0.08951431     0.11900
C135        C  0.04986866  0.09821989  0.07009630    -0.14300
C136        C  0.51005735  0.07191967  0.06633759     0.07900
C137        C  0.47170348  0.08063114  0.08507904    -0.14300
C138        C  0.47264395  0.11592878  0.10641658    -0.14300
C139        C  0.51170298  0.14346843  0.10904356     0.07900
C140        C  0.05048110  0.13394560  0.09099928    -0.14300
H141        H  0.07990864  0.09230533  0.05600111     0.11900
H142        H  0.44070128  0.06062561  0.08285406     0.11900
H143        H  0.44225312  0.12294673  0.11993900     0.11900
H144        H  0.08086114  0.15496493  0.09258684     0.11900
C145        C  0.35119284  0.00872053  0.39792085    -0.14300
C146        C  0.32725528  0.04775912  0.38928727     0.07900
C147        C  0.33897915  0.08876188  0.40328439    -0.14300
C148        C  0.37392506  0.09064442  0.42565883    -0.14300
C149        C  0.39720536  0.05135380  0.43484568     0.07900
C150        C  0.38574452  0.01046989  0.42046945    -0.14300
H151        H  0.34185789  0.97653391  0.38810162     0.11900
H152        H  0.32032367  0.11912941  0.39734587     0.11900
H153        H  0.38194825  0.12261971  0.43628103     0.11900
H154        H  0.40308770  0.97960818  0.42694687     0.11900
C155        C  0.13231438  0.01015067  0.39229246    -0.14300
C156        C  0.15845554  0.04853497  0.38559488     0.07900
C157        C  0.14825665  0.08907297  0.40061528    -0.14300
C158        C  0.11371339  0.09083683  0.42284812    -0.14300
C159        C  0.08915673  0.05189625  0.43073229     0.07900
C160        C  0.09797177  0.01180665  0.41468344    -0.14300
H161        H  0.14021794  0.97830730  0.38148745     0.11900
H162        H  0.16842453  0.11892019  0.39602235     0.11900
H163        H  0.10756727  0.12220711  0.43475205     0.11900
H164        H  0.07925025  0.98136066  0.42008210     0.11900
C165        C  0.35952379  0.04999995  0.31205334    -0.14300
C166        C  0.33117188  0.01593065  0.32382485     0.07900
C167        C  0.34428044  0.97105052  0.31999094    -0.14300
C168        C  0.38434212  0.96019098  0.30392134    -0.14300
C169        C  0.41166380  0.99393468  0.29033048     0.07900
C170        C  0.39932729  0.03912228  0.29532084    -0.14300
H171        H  0.34999199  0.08493649  0.31494409     0.11900
H172        H  0.32323743  0.94433036  0.32931723     0.11900
H173        H  0.39337187  0.92506288  0.30178558     0.11900
H174        H  0.41923912  0.06608104  0.28537257     0.11900
C175        C  0.14936824  0.97008977  0.31281238    -0.14300
C176        C  0.15895649  0.01488638  0.32031312     0.07900
C177        C  0.12718457  0.04824263  0.31159210    -0.14300
C178        C  0.08709057  0.03704834  0.29494875    -0.14300
C179        C  0.07722829  0.99200028  0.28720177     0.07900
C180        C  0.10885757  0.95870355  0.29697930    -0.14300
H181        H  0.17306238  0.94371904  0.31965174     0.11900
H182        H  0.13392890  0.08311888  0.31712601     0.11900
H183        H  0.06465588  0.06405514  0.28765499     0.11900
H184        H  0.10265515  0.92348868  0.29261516     0.11900
C185        C  0.14442639  0.01173333  0.60149251    -0.14300
C186        C  0.16751405  0.05112180  0.61027031     0.07900
C187        C  0.15492738  0.09200560  0.59636800    -0.14300
C188        C  0.11991795  0.09337582  0.57397803    -0.14300
C189        C  0.09743789  0.05369941  0.56473924     0.07900
C190        C  0.10977497  0.01299481  0.57904206    -0.14300
H191        H  0.15453370  0.97962004  0.61108683     0.11900
H192        H  0.17292499  0.12267450  0.60239849     0.11900
H193        H  0.11119415  0.12524078  0.56341598     0.11900
H194        H  0.09312616  0.98182883  0.57252415     0.11900
C195        C  0.36074486  0.01295859  0.60655662    -0.14300
C196        C  0.33603685  0.05199416  0.61391024     0.07900
C197        C  0.34764293  0.09268256  0.59955494    -0.14300
C198        C  0.38231328  0.09396036  0.57734296    -0.14300
C199        C  0.40542240  0.05437972  0.56882048     0.07900
C200        C  0.39509825  0.01412638  0.58422285    -0.14300
H201        H  0.35173669  0.98105685  0.61687372     0.11900
H202        H  0.32859485  0.12306802  0.60470969     0.11900
H203        H  0.38972204  0.12550461  0.56598853     0.11900
H204        H  0.41260545  0.98316349  0.57834597     0.11900
C205        C  0.03610257  0.06964019  0.81321802    -0.14300
C206        C  0.00595115  0.06213245  0.78830230     0.07900
C207        C  0.47490877  0.09622817  0.77986225    -0.14300
C208        C  0.47290197  0.13637699  0.79673009    -0.14300
C209        C  0.00227725  0.14347828  0.82218746     0.07900
C210        C  0.03469988  0.11002921  0.82968728    -0.14300
H211        H  0.06096345  0.04422862  0.81989072     0.11900
H212        H  0.45108632  0.09121473  0.76090942     0.11900
H213        H  0.44775246  0.16161477  0.79023646     0.11900
H214        H  0.05913253  0.11509729  0.84827438     0.11900
C215        C  0.03732372  0.35711155  0.78258092    -0.14300
C216        C  0.00513856  0.39225255  0.78675074     0.07900
C217        C  0.47028834  0.38584783  0.80880797    -0.14300
C218        C  0.46783176  0.34617602  0.82612873    -0.14300
C219        C  0.00033660  0.31172301  0.82201667     0.07900
C220        C  0.03489661  0.31764875  0.79999876    -0.14300
H221        H  0.06432588  0.35878186  0.76582241     0.11900
H222        H  0.44457199  0.41166978  0.81247273     0.11900
H223        H  0.44013684  0.34220108  0.84246199     0.11900
H224        H  0.06034216  0.29155875  0.79628025     0.11900
C225        C  0.09672398  0.04026988  0.70534560    -0.14300
C226        C  0.08275306  0.99517191  0.70805626     0.07900
C227        C  0.10880911  0.96192865  0.69285977    -0.14300
C228        C  0.14912132  0.97302594  0.67713657    -0.14300
C229        C  0.16366410  0.01776444  0.67531465     0.07900
C230        C  0.13670663  0.05146091  0.68895003    -0.14300
H231        H  0.07801105  0.06671288  0.71693953     0.11900
H232        H  0.09861070  0.92698071  0.69360486     0.11900
H233        H  0.16921508  0.94661123  0.66651192     0.11900
H234        H  0.14748162  0.08624428  0.68776035     0.11900
C235        C  0.40954446  0.03788749  0.70228286    -0.14300
C236        C  0.41741860  0.99342791  0.71237915     0.07900
C237        C  0.38411971  0.46072358  0.70431948    -0.14300
C238        C  0.34386697  0.47235275  0.68822946    -0.14300
C239        C  0.33599842  0.01670825  0.67877875     0.07900
C240        C  0.36958979  0.04925824  0.68553327    -0.14300
H241        H  0.43349190  0.06452956  0.70767557     0.11900
H242        H  0.38862590  0.42578065  0.71020154     0.11900
H243        H  0.31890082  0.44641941  0.68280910     0.11900
H244        H  0.36439662  0.08374851  0.67839847     0.11900
C245        C  0.50564036  0.93604085  0.76791317     0.85600
C246        C  0.04549449  0.94260113  0.74515357    -0.54700
C247        C  0.04408835  0.48192741  0.72890956     0.08500
C248        C  0.50198961  0.51162405  0.73706878     0.19500
C249        C  0.50752772  0.97822977  0.78818321    -0.55400
C250        C  0.00540050  0.51786864  0.77234449     0.08600
C251        C  0.46184480  0.94186046  0.74830956    -0.52500
C252        C  0.45903118  0.48123833  0.73187177     0.09200
H253        H  0.07445964  0.92007800  0.74322366     0.13700
H254        H  0.50144077  0.54376118  0.72429243    -0.00600
H255        H  0.50963008  0.97675662  0.81313092     0.14000
H256        H  0.43488305  0.91675642  0.74870558     0.13800
C257        C  0.29339889  0.54844074  0.63229305     0.01400
C258        C  0.29266807  0.52872142  0.66193855     0.01300
C259        C  0.24968218  0.51952886  0.67556557    -0.19200
C260        C  0.20788272  0.52888310  0.66009333     0.01400
C261        C  0.20902623  0.54805099  0.63034679     0.01300
C262        C  0.25168037  0.55872713  0.61730995    -0.19200
H263        H  0.25248391  0.57174699  0.59400202     0.03400
H264        H  0.24871706  0.50457691  0.69829639     0.03400
C265        C  0.20216061  0.52639983  0.33733580     0.01400
C266        C  0.20129044  0.54445981  0.36744264     0.01300
C267        C  0.24296289  0.55388761  0.38270500    -0.19200
C268        C  0.28567900  0.54434399  0.36935948     0.01400
C269        C  0.28695587  0.52673068  0.33918214     0.01300
C270        C  0.24517183  0.51801736  0.32350146    -0.19200
H271        H  0.24615723  0.50414942  0.30044809     0.03400
H272        H  0.24211350  0.56580821  0.40628839     0.03400
O273        O  0.46539982  0.52202774  0.96933530    -0.72700
O274        O  0.46921407  0.93319136  0.03256836    -0.72900
O275        O  0.46977235  0.52321110  0.03164573    -0.72800
O276        O  0.46468958  0.93171048  0.97063708    -0.72800
O277        O  0.03919208  0.93365190  0.96667427    -0.72700
O278        O  0.04453493  0.52040232  0.03098451    -0.72700
O279        O  0.04367890  0.92998874  0.02853069    -0.72700
O280        O  0.04019899  0.52386595  0.96930818    -0.72900
V281        V  0.46868502  0.97757268  0.00098348     1.35200
V282        V  0.04045348  0.97696662  0.99893103     1.35200
C283        C  0.00231421  0.53849680  0.95880581     0.76600
C284        C  0.50714328  0.91602198  0.04104902     0.76600
C285        C  0.50803892  0.53690924  0.04211823     0.76500
C286        C  0.00099431  0.91740543  0.95795564     0.76400
C287        C  0.51023877  0.68525274  0.12769182     0.01400
C288        C  0.50212396  0.68559772  0.15982861     0.01300
C289        C  0.49765840  0.72733407  0.17493710    -0.19200
C290        C  0.50143617  0.76848729  0.15892695     0.01400
C291        C  0.50966018  0.76756602  0.12682899     0.01300
C292        C  0.51433547  0.72608907  0.11188297    -0.19200
H293        H  0.51942721  0.72554916  0.08717381     0.03400
H294        H  0.49245685  0.72781064  0.19960704     0.03400
C295        C  0.49036282  0.93570037  0.23063068     0.85600
C296        C  0.44934946  0.94248665  0.25246525    -0.54700
C297        C  0.45043663  0.48135358  0.26927950     0.08500
C298        C  0.49315336  0.51070162  0.26224686     0.19500
C299        C  0.49051516  0.97829852  0.21070450    -0.55400
C300        C  0.49203485  0.51749978  0.22703934     0.08600
C301        C  0.03312426  0.94052752  0.25135767    -0.54900
C302        C  0.03560236  0.47977061  0.26795780     0.09200
H303        H  0.42024597  0.92016434  0.25364226     0.13700
H304        H  0.49389917  0.54263629  0.27527535    -0.00600
H305        H  0.99020335  0.97752237  0.18570952     0.14000
H306        H  0.06013705  0.91537084  0.25128707     0.13800
C307        C  0.99819974  0.76913185  0.84007200     0.01400
C308        C  0.99589471  0.76899685  0.87257405     0.01300
C309        C  0.99583834  0.72800339  0.88838595    -0.19200
C310        C  0.99824819  0.68674844  0.87290801     0.01400
C311        C  0.99962424  0.68617752  0.84026214     0.01300
C312        C  0.99950608  0.72759682  0.82437867    -0.19200
H313        H  0.00117830  0.72755601  0.79946796     0.03400
H314        H  0.99477535  0.72823381  0.91334746     0.03400
O315        O  0.04551219  0.01764872  0.52982800    -0.72700
O316        O  0.44918869  0.01646197  0.47036520    -0.72900
O317        O  0.04095050  0.01643853  0.46775822    -0.72800
O318        O  0.45375170  0.01779274  0.53240430    -0.72800
O319        O  0.45305617  0.59075330  0.53158207    -0.72700
O320        O  0.04150423  0.58942042  0.46737977    -0.72700
O321        O  0.44904991  0.58940929  0.46941420    -0.72700
O322        O  0.04551776  0.59060094  0.52953873    -0.72900
V323        V  0.49735166  0.01856341  0.50008673     1.35200
V324        V  0.49728452  0.58867792  0.49948141     1.35200
C325        C  0.06148148  0.55416887  0.54029648     0.76600
C326        C  0.43315778  0.55259739  0.45929236     0.76600
C327        C  0.05576028  0.55268059  0.45628359     0.76500
C328        C  0.43885691  0.55442462  0.54328062     0.76400
C329        C  0.03107208  0.84543049  0.17357324    -0.14300
C330        C  0.49771219  0.81151605  0.17642931     0.07900
C331        C  0.46122100  0.81823800  0.19690150    -0.14300
C332        C  0.45795224  0.85777655  0.21419400    -0.14300
C333        C  0.49128701  0.89218091  0.21148740     0.07900
C334        C  0.02776304  0.88518369  0.19073023    -0.14300
H335        H  0.06015222  0.84090910  0.15842431     0.11900
H336        H  0.43499043  0.79265033  0.19958825     0.11900
H337        H  0.42940970  0.86002161  0.22968858     0.11900
H338        H  0.05424738  0.91049688  0.18809806     0.11900
C339        C  0.46430346  0.63552756  0.19922568    -0.14300
C340        C  0.50017005  0.64320732  0.17818714     0.07900
C341        C  0.03452071  0.61023110  0.17492073    -0.14300
C342        C  0.03194781  0.56973941  0.19112773    -0.14300
C343        C  0.49565597  0.56173915  0.21157797     0.07900
C344        C  0.46219001  0.59516705  0.21589697    -0.14300
H345        H  0.43743127  0.66038981  0.20228224     0.11900
H346        H  0.06333239  0.61570207  0.15967332     0.11900
H347        H  0.05837353  0.54451762  0.18772071     0.11900
H348        H  0.43371375  0.58946470  0.23138188     0.11900
C349        C  0.03942438  0.60374447  0.93279892    -0.14300
C350        C  0.00169837  0.57446727  0.93522236     0.07900
C351        C  0.46368986  0.58052099  0.91535909    -0.14300
C352        C  0.46324824  0.61572852  0.89382865    -0.14300
C353        C  0.00046225  0.64572050  0.89226067     0.07900
C354        C  0.03855639  0.63927586  0.91181709    -0.14300
H355        H  0.06909712  0.60001648  0.94783306     0.11900
H356        H  0.43430962  0.55821395  0.91660957     0.11900
H357        H  0.43337029  0.62045955  0.87911847     0.11900
H358        H  0.06739034  0.66233625  0.91113043     0.11900
C359        C  0.45813275  0.85701203  0.92973098    -0.14300
C360        C  0.99875119  0.88201467  0.93398644     0.07900
C361        C  0.03743325  0.87173061  0.91590673    -0.14300
C362        C  0.03583379  0.83638925  0.89461665    -0.14300
C363        C  0.99572140  0.81053559  0.89132774     0.07900
C364        C  0.45682229  0.82132622  0.90883979    -0.14300
H365        H  0.42780180  0.86405690  0.94329696     0.11900
H366        H  0.06914582  0.89052146  0.91858861     0.11900
H367        H  0.06634315  0.82813640  0.88154029     0.11900
H368        H  0.42572866  0.80140617  0.90677709     0.11900
C369        C  0.04795372  0.85256601  0.06746993    -0.14300
C370        C  0.50881191  0.88014371  0.06467447     0.07900
C371        C  0.47104893  0.87231072  0.08409195    -0.14300
C372        C  0.47206215  0.83695964  0.10538576    -0.14300
C373        C  0.51067103  0.80862061  0.10741805     0.07900
C374        C  0.04869581  0.81694656  0.08843793    -0.14300
H375        H  0.07751505  0.85769919  0.05279821     0.11900
H376        H  0.44053203  0.89318969  0.08256118     0.11900
H377        H  0.44214607  0.83077771  0.11954285     0.11900
H378        H  0.07868511  0.79527090  0.08950118     0.11900
C379        C  0.04986844  0.59819102  0.07011617    -0.14300
C380        C  0.51004799  0.57190943  0.06633910     0.07900
C381        C  0.47168297  0.58063132  0.08506855    -0.14300
C382        C  0.47262158  0.61592356  0.10641037    -0.14300
C383        C  0.51168983  0.64344718  0.10905323     0.07900
C384        C  0.05047908  0.63391186  0.09102301    -0.14300
H385        H  0.07991758  0.59226729  0.05603180     0.11900
H386        H  0.44067361  0.56063954  0.08283007     0.11900
H387        H  0.44222252  0.62295198  0.11992240     0.11900
H388        H  0.08086605  0.65491947  0.09262327     0.11900
C389        C  0.35116300  0.50873764  0.39795501    -0.14300
C390        C  0.32724940  0.54778186  0.38930467     0.07900
C391        C  0.33899283  0.58879026  0.40328638    -0.14300
C392        C  0.37393861  0.59067338  0.42566106    -0.14300
C393        C  0.39719761  0.55137835  0.43486339     0.07900
C394        C  0.38571336  0.51048782  0.42050419    -0.14300
H395        H  0.34181208  0.47654850  0.38814666     0.11900
H396        H  0.32035496  0.61916203  0.39733453     0.11900
H397        H  0.38198006  0.62265379  0.43626989     0.11900
H398        H  0.40303840  0.47962220  0.42699426     0.11900
C399        C  0.13229962  0.51018750  0.39228643    -0.14300
C400        C  0.15845106  0.54856830  0.38559622     0.07900
C401        C  0.14825752  0.58910415  0.40062112    -0.14300
C402        C  0.11371301  0.59086793  0.42285310    -0.14300
C403        C  0.08914875  0.55192934  0.43073145     0.07900
C404        C  0.09795492  0.51184385  0.41467597    -0.14300
H405        H  0.14019772  0.47834575  0.38147832     0.11900
H406        H  0.16843209  0.61894910  0.39603349     0.11900
H407        H  0.10757333  0.62223525  0.43476179     0.11900
H408        H  0.07922613  0.48139954  0.42006962     0.11900
C409        C  0.35954730  0.55000869  0.31208457    -0.14300
C410        C  0.33118082  0.51594374  0.32384618     0.07900
C411        C  0.34427534  0.47106134  0.32000437    -0.14300
C412        C  0.38433536  0.46019515  0.30393479    -0.14300
C413        C  0.41167035  0.49393576  0.29035172     0.07900
C414        C  0.39934894  0.53912534  0.29535182    -0.14300
H415        H  0.35002727  0.58494715  0.31498179     0.11900
H416        H  0.32322090  0.44434328  0.32932374     0.11900
H417        H  0.39335276  0.42506556  0.30179324     0.11900
H418        H  0.41927042  0.56608274  0.28541047     0.11900
C419        C  0.14937823  0.47010569  0.31282611    -0.14300
C420        C  0.15896742  0.51490542  0.32031796     0.07900
C421        C  0.12719826  0.54825937  0.31158907    -0.14300
C422        C  0.08710347  0.53705932  0.29494887    -0.14300
C423        C  0.07723805  0.49200766  0.28721345     0.07900
C424        C  0.10886653  0.45871395  0.29699613    -0.14300
H425        H  0.17307080  0.44373740  0.31967120     0.11900
H426        H  0.13394436  0.58313813  0.31711552     0.11900
H427        H  0.06467079  0.56406325  0.28764896     0.11900
H428        H  0.10266152  0.42349738  0.29263889     0.11900
C429        C  0.14440952  0.51175423  0.60151261    -0.14300
C430        C  0.16752165  0.55113586  0.61027643     0.07900
C431        C  0.15495942  0.59201634  0.59635923    -0.14300
C432        C  0.11995194  0.59338984  0.57396815    -0.14300
C433        C  0.09744890  0.55371959  0.56474289     0.07900
C434        C  0.10976004  0.51301873  0.57906075    -0.14300
H435        H  0.15449652  0.47964203  0.61111842     0.11900
H436        H  0.17297517  0.62267955  0.60237865     0.11900
H437        H  0.11124826  0.62525161  0.56339417     0.11900
H438        H  0.09309168  0.48185801  0.57255403     0.11900
C439        C  0.36076494  0.51297498  0.60656961    -0.14300
C440        C  0.33604657  0.55200645  0.61391843     0.07900
C441        C  0.34764500  0.59269497  0.59956045    -0.14300
C442        C  0.38231760  0.59397651  0.57735019    -0.14300
C443        C  0.40543711  0.55439947  0.56883257     0.07900
C444        C  0.39512120  0.51414685  0.58423801    -0.14300
H445        H  0.35176292  0.48107324  0.61688816     0.11900
H446        H  0.32858915  0.62307712  0.60471140     0.11900
H447        H  0.38971936  0.62551995  0.56599297     0.11900
H448        H  0.41263666  0.48318652  0.57836460     0.11900
C449        C  0.03609938  0.56964320  0.81322417    -0.14300
C450        C  0.00594802  0.56213358  0.78830866     0.07900
C451        C  0.47490478  0.59622822  0.77986785    -0.14300
C452        C  0.47289812  0.63637847  0.79673412    -0.14300
C453        C  0.00227416  0.64348227  0.82219076     0.07900
C454        C  0.03469668  0.61003364  0.82969207    -0.14300
H455        H  0.06096000  0.54423190  0.81989783     0.11900
H456        H  0.45108190  0.59121314  0.76091593     0.11900
H457        H  0.44774794  0.66161537  0.79023985     0.11900
H458        H  0.05912757  0.61510264  0.84828013     0.11900
C459        C  0.03730941  0.85710279  0.78256170    -0.14300
C460        C  0.00513862  0.89225304  0.78674271     0.07900
C461        C  0.47030067  0.88585826  0.80880968    -0.14300
C462        C  0.46784427  0.84618811  0.82613145    -0.14300
C463        C  0.00033742  0.81172675  0.82201131     0.07900
C464        C  0.03488322  0.81764149  0.79998158    -0.14300
H465        H  0.06429664  0.85876504  0.76579260     0.11900
H466        H  0.44459391  0.91168670  0.81248147     0.11900
H467        H  0.44015723  0.84222122  0.84247164     0.11900
H468        H  0.06031828  0.79154425  0.79625492     0.11900
C469        C  0.09671143  0.54027152  0.70533098    -0.14300
C470        C  0.08276325  0.49516943  0.70806493     0.07900
C471        C  0.10884083  0.46192255  0.69288775    -0.14300
C472        C  0.14915250  0.47302168  0.67716473    -0.14300
C473        C  0.16367228  0.51776501  0.67532020     0.07900
C474        C  0.13669199  0.55146380  0.68893301    -0.14300
H475        H  0.07798252  0.56671918  0.71690778     0.11900
H476        H  0.09865994  0.42697074  0.69364633     0.11900
H477        H  0.16926240  0.44660489  0.66655612     0.11900
H478        H  0.14744803  0.58625127  0.68772498     0.11900
C479        C  0.40954448  0.53789293  0.70229753    -0.14300
C480        C  0.41742801  0.49342918  0.71238134     0.07900
C481        C  0.38410039  0.96072575  0.70432912    -0.14300
C482        C  0.34384879  0.97235378  0.68823770    -0.14300
C483        C  0.33600641  0.51671142  0.67878386     0.07900
C484        C  0.36958906  0.54926536  0.68554934    -0.14300
H485        H  0.43348592  0.56453778  0.70769970     0.11900
H486        H  0.38859711  0.92578433  0.71022137     0.11900
H487        H  0.31887611  0.94642350  0.68282694     0.11900
H488        H  0.36438843  0.58375780  0.67842430     0.11900
C489        C  0.00564097  0.43604118  0.76792090     0.85600
C490        C  0.54549983  0.44260305  0.74516509    -0.54700
C491        C  0.54408024  0.98192669  0.72889983     0.08500
C492        C  0.00198405  0.01162409  0.73706232     0.19500
C493        C  0.00752233  0.47823051  0.78819069    -0.55400
C494        C  0.50540227  0.01786808  0.77233767     0.08600
C495        C  0.96184938  0.44185956  0.74831255    -0.52500
C496        C  0.95902384  0.98123885  0.73186857     0.09200
H497        H  0.57446529  0.42008020  0.74323858     0.13700
H498        H  0.00143611  0.04376159  0.72428634    -0.00600
H499        H  0.00961934  0.47675778  0.81313865     0.14000
H500        H  0.93488662  0.41675614  0.74870589     0.13800
C501        C  0.79339041  0.04843408  0.63228637     0.01400
C502        C  0.79266000  0.02871780  0.66193308     0.01300
C503        C  0.74967398  0.01952810  0.67556093    -0.19200
C504        C  0.70787495  0.02887970  0.66008801     0.01400
C505        C  0.70901836  0.04804399  0.63034065     0.01300
C506        C  0.75167179  0.05871973  0.61730320    -0.19200
H507        H  0.75247451  0.07173772  0.59399435     0.03400
H508        H  0.74870832  0.00457883  0.69829310     0.03400
C509        C  0.70215389  0.02637594  0.33732864     0.01400
C510        C  0.70129053  0.04443023  0.36743711     0.01300
C511        C  0.74296567  0.05385638  0.38269631    -0.19200
C512        C  0.78567963  0.04431722  0.36934613     0.01400
C513        C  0.78694994  0.02671003  0.33916671     0.01300
C514        C  0.74516261  0.01799734  0.32348954    -0.19200
H515        H  0.74614359  0.00413394  0.30043448     0.03400
H516        H  0.74212001  0.06577355  0.40628090     0.03400
O517        O  0.96540204  0.02203379  0.96934492    -0.72700
O518        O  0.96921805  0.43319398  0.03256490    -0.72900
O519        O  0.96977636  0.02321000  0.03165443    -0.72800
O520        O  0.96469281  0.43170492  0.97063422    -0.72800
O521        O  0.53919424  0.43365715  0.96666608    -0.72700
O522        O  0.54453894  0.02040393  0.03098717    -0.72700
O523        O  0.54368221  0.42998982  0.02852242    -0.72700
O524        O  0.54020113  0.02386002  0.96931062    -0.72900
V525        V  0.96868507  0.47757092  0.00097711     1.35200
V526        V  0.54045343  0.47696924  0.99892521     1.35200
C527        C  0.50231651  0.03849652  0.95881108     0.76600
C528        C  0.00714865  0.41602595  0.04104442     0.76600
C529        C  0.00804446  0.03691202  0.04212214     0.76500
C530        C  0.50099747  0.41740403  0.95795105     0.76400
C531        C  0.01025336  0.18527120  0.12768622     0.01400
C532        C  0.00212842  0.18560982  0.15982190     0.01300
C533        C  0.99765990  0.22734286  0.17493457    -0.19200
C534        C  0.00144499  0.26849986  0.15892965     0.01400
C535        C  0.00967990  0.26758487  0.12683282     0.01300
C536        C  0.01435844  0.22611117  0.11188288    -0.19200
H537        H  0.01945649  0.22557709  0.08717433     0.03400
H538        H  0.99245044  0.22781350  0.19960364     0.03400
C539        C  0.99036901  0.43569950  0.23065005     0.85600
C540        C  0.94935663  0.44248451  0.25248587    -0.54700
C541        C  0.95043022  0.98135514  0.26925876     0.08500
C542        C  0.99314764  0.01070242  0.26222755     0.19500
C543        C  0.99051904  0.47829794  0.21072427    -0.55400
C544        C  0.99203061  0.01750055  0.22701967     0.08600
C545        C  0.53313156  0.44052763  0.25137628    -0.54900
C546        C  0.53559552  0.97976956  0.26794033     0.09200
H547        H  0.92025441  0.42015924  0.25366323     0.13700
H548        H  0.99389164  0.04263726  0.27525612    -0.00600
H549        H  0.49020676  0.47752191  0.18572939     0.14000
H550        H  0.56014615  0.41537317  0.25130506     0.13800
C551        C  0.49819927  0.26912584  0.84007464     0.01400
C552        C  0.49589368  0.26898723  0.87257656     0.01300
C553        C  0.49583780  0.22799189  0.88838656    -0.19200
C554        C  0.49824861  0.18673944  0.87290625     0.01400
C555        C  0.49962770  0.18617199  0.84026047     0.01300
C556        C  0.49950922  0.22759297  0.82437917    -0.19200
H557        H  0.50118381  0.22755543  0.79946805     0.03400
H558        H  0.49477547  0.22821861  0.91334851     0.03400
O559        O  0.54552606  0.51767210  0.52982900    -0.72700
O560        O  0.94918730  0.51648833  0.47037853    -0.72900
O561        O  0.54094813  0.51646721  0.46775893    -0.72800
O562        O  0.95376735  0.51781537  0.53241604    -0.72800
O563        O  0.95304668  0.09073066  0.53157116    -0.72700
O564        O  0.54150319  0.08939167  0.46737364    -0.72700
O565        O  0.94904847  0.08938301  0.46940286    -0.72700
O566        O  0.54550832  0.09057744  0.52953253    -0.72900
V567        V  0.99735843  0.51858873  0.50009333     1.35200
V568        V  0.99727896  0.08865254  0.49947277     1.35200
C569        C  0.56146938  0.05414629  0.54029329     0.76600
C570        C  0.93316046  0.05257121  0.45927815     0.76600
C571        C  0.55576364  0.05265056  0.45628173     0.76500
C572        C  0.93884309  0.05440275  0.54326870     0.76400
C573        C  0.53108088  0.34543932  0.17358593    -0.14300
C574        C  0.99771929  0.31152551  0.17643636     0.07900
C575        C  0.96122594  0.31824434  0.19690785    -0.14300
C576        C  0.95795768  0.35777915  0.21420481    -0.14300
C577        C  0.99129446  0.39218225  0.21150421     0.07900
C578        C  0.52777228  0.38518835  0.19074766    -0.14300
H579        H  0.56016246  0.34092075  0.15843790     0.11900
H580        H  0.93499407  0.29265786  0.19959014     0.11900
H581        H  0.92941150  0.36002367  0.22969829     0.11900
H582        H  0.55425752  0.41050085  0.18811931     0.11900
C583        C  0.96429298  0.13552734  0.19920505    -0.14300
C584        C  0.00016940  0.14321522  0.17817545     0.07900
C585        C  0.53452407  0.11024223  0.17491198    -0.14300
C586        C  0.53194852  0.06974751  0.19111523    -0.14300
C587        C  0.99564959  0.06174054  0.21155857     0.07900
C588        C  0.96217661  0.09516331  0.21587230    -0.14300
H589        H  0.93741704  0.16038581  0.20225796     0.11900
H590        H  0.56334103  0.11571871  0.15966970     0.11900
H591        H  0.55837887  0.04452876  0.18771133     0.11900
H592        H  0.93369347  0.08945508  0.23135093     0.11900
C593        C  0.53945845  0.10369271  0.93275873    -0.14300
C594        C  0.50169927  0.07446320  0.93522367     0.07900
C595        C  0.96365407  0.08056202  0.91539809    -0.14300
C596        C  0.96320970  0.11576587  0.89386506    -0.14300
C597        C  0.50045968  0.14570942  0.89225595     0.07900
C598        C  0.53858918  0.13922202  0.91177463    -0.14300
H599        H  0.56916116  0.09993039  0.94776275     0.11900
H600        H  0.93424533  0.05829405  0.91668090     0.11900
H601        H  0.93330426  0.12053337  0.87918624     0.11900
H602        H  0.56745011  0.16224743  0.91105687     0.11900
C603        C  0.95814016  0.35699592  0.92974001    -0.14300
C604        C  0.49875369  0.38200940  0.93398486     0.07900
C605        C  0.53742979  0.37173270  0.91589765    -0.14300
C606        C  0.53582840  0.33638868  0.89460972    -0.14300
C607        C  0.49572092  0.31052508  0.89133084     0.07900
C608        C  0.95682811  0.32130774  0.90885099    -0.14300
H609        H  0.92781399  0.36403467  0.94331244     0.11900
H610        H  0.56913806  0.39053163  0.91857152     0.11900
H611        H  0.56633353  0.32814208  0.88152649     0.11900
H612        H  0.92573882  0.30138061  0.90679599     0.11900
C613        C  0.54797042  0.35258649  0.06747549    -0.14300
C614        C  0.00882217  0.38015416  0.06467386     0.07900
C615        C  0.97105889  0.37231905  0.08409046    -0.14300
C616        C  0.97207696  0.33697322  0.10538802    -0.14300
C617        C  0.01069119  0.30864199  0.10742502     0.07900
C618        C  0.54871781  0.31697230  0.08844740    -0.14300
H619        H  0.57753348  0.35772264  0.05280486     0.11900
H620        H  0.94053747  0.39319120  0.08255542     0.11900
H621        H  0.94215958  0.33078731  0.11954305     0.11900
H622        H  0.57871061  0.29530272  0.08951428     0.11900
C623        C  0.54986865  0.09821981  0.07009634    -0.14300
C624        C  0.01005736  0.07191977  0.06633757     0.07900
C625        C  0.97170340  0.08063125  0.08507905    -0.14300
C626        C  0.97264417  0.11592882  0.10641649    -0.14300
C627        C  0.01170301  0.14346850  0.10904357     0.07900
C628        C  0.55048109  0.13394558  0.09099931    -0.14300
H629        H  0.57990853  0.09230535  0.05600124     0.11900
H630        H  0.94070142  0.06062581  0.08285402     0.11900
H631        H  0.94225261  0.12294695  0.11993925     0.11900
H632        H  0.58086100  0.15496488  0.09258688     0.11900
C633        C  0.85119286  0.00872056  0.39792084    -0.14300
C634        C  0.82725527  0.04775913  0.38928728     0.07900
C635        C  0.83897914  0.08876185  0.40328442    -0.14300
C636        C  0.87392504  0.09064443  0.42565885    -0.14300
C637        C  0.89720536  0.05135380  0.43484567     0.07900
C638        C  0.88574456  0.01046987  0.42046943    -0.14300
H639        H  0.84185793  0.97653389  0.38810158     0.11900
H640        H  0.82032358  0.11912946  0.39734591     0.11900
H641        H  0.88194820  0.12261967  0.43628106     0.11900
H642        H  0.90308774  0.97960824  0.42694682     0.11900
C643        C  0.63231440  0.01015062  0.39229247    -0.14300
C644        C  0.65845554  0.04853496  0.38559487     0.07900
C645        C  0.64825659  0.08907295  0.40061527    -0.14300
C646        C  0.61371336  0.09083680  0.42284807    -0.14300
C647        C  0.58915671  0.05189623  0.43073229     0.07900
C648        C  0.59797180  0.01180664  0.41468345    -0.14300
H649        H  0.64021799  0.97830728  0.38148749     0.11900
H650        H  0.66842454  0.11892025  0.39602230     0.11900
H651        H  0.60756719  0.12220718  0.43475202     0.11900
H652        H  0.57925023  0.98136052  0.42008214     0.11900
C653        C  0.85952381  0.05000003  0.31205337    -0.14300
C654        C  0.83117190  0.01593063  0.32382486     0.07900
C655        C  0.84428047  0.97105054  0.31999093    -0.14300
C656        C  0.88434212  0.96019100  0.30392135    -0.14300
C657        C  0.91166383  0.99393470  0.29033050     0.07900
C658        C  0.89932727  0.03912221  0.29532089    -0.14300
H659        H  0.84999207  0.08493628  0.31494412     0.11900
H660        H  0.82323730  0.94433026  0.32931728     0.11900
H661        H  0.89337183  0.92506294  0.30178560     0.11900
H662        H  0.91923934  0.06608133  0.28537252     0.11900
C663        C  0.64936827  0.97008974  0.31281241    -0.14300
C664        C  0.65895651  0.01488642  0.32031313     0.07900
C665        C  0.62718459  0.04824255  0.31159208    -0.14300
C666        C  0.58709051  0.03704845  0.29494872    -0.14300
C667        C  0.57722832  0.99200023  0.28720178     0.07900
C668        C  0.60885759  0.95870360  0.29697934    -0.14300
H669        H  0.67306219  0.94371922  0.31965171     0.11900
H670        H  0.63392899  0.08311923  0.31712603     0.11900
H671        H  0.56465624  0.06405476  0.28765508     0.11900
H672        H  0.60265505  0.92348837  0.29261515     0.11900
C673        C  0.64442645  0.01173336  0.60149248    -0.14300
C674        C  0.66751407  0.05112179  0.61027032     0.07900
C675        C  0.65492739  0.09200565  0.59636803    -0.14300
C676        C  0.61991796  0.09337579  0.57397806    -0.14300
C677        C  0.59743793  0.05369944  0.56473923     0.07900
C678        C  0.60977502  0.01299476  0.57904202    -0.14300
H679        H  0.65453383  0.97961992  0.61108683     0.11900
H680        H  0.67292486  0.12267438  0.60239851     0.11900
H681        H  0.61119409  0.12524094  0.56341597     0.11900
H682        H  0.59312638  0.98182900  0.57252414     0.11900
C683        C  0.86074490  0.01295858  0.60655664    -0.14300
C684        C  0.83603688  0.05199412  0.61391022     0.07900
C685        C  0.84764285  0.09268261  0.59955492    -0.14300
C686        C  0.88231323  0.09396024  0.57734294    -0.14300
C687        C  0.90542237  0.05437973  0.56882045     0.07900
C688        C  0.89509831  0.01412633  0.58422284    -0.14300
H689        H  0.85173673  0.98105677  0.61687379     0.11900
H690        H  0.82859497  0.12306768  0.60470959     0.11900
H691        H  0.88972200  0.12550481  0.56598838     0.11900
H692        H  0.91260537  0.98316367  0.57834605     0.11900
C693        C  0.53610256  0.06964019  0.81321805    -0.14300
C694        C  0.50595117  0.06213243  0.78830231     0.07900
C695        C  0.97490873  0.09622817  0.77986219    -0.14300
C696        C  0.97290195  0.13637707  0.79673006    -0.14300
C697        C  0.50227725  0.14347826  0.82218749     0.07900
C698        C  0.53469988  0.11002916  0.82968731    -0.14300
H699        H  0.56096355  0.04422850  0.81989078     0.11900
H700        H  0.95108643  0.09121479  0.76090949     0.11900
H701        H  0.94775257  0.16161470  0.79023644     0.11900
H702        H  0.55913258  0.11509729  0.84827447     0.11900
C703        C  0.53732385  0.35711158  0.78258097    -0.14300
C704        C  0.50513863  0.39225254  0.78675076     0.07900
C705        C  0.97028833  0.38584786  0.80880800    -0.14300
C706        C  0.96783177  0.34617606  0.82612878    -0.14300
C707        C  0.50033662  0.31172299  0.82201666     0.07900
C708        C  0.53489669  0.31764876  0.79999880    -0.14300
H709        H  0.56432603  0.35878192  0.76582253     0.11900
H710        H  0.94457199  0.41166984  0.81247280     0.11900
H711        H  0.94013692  0.34220115  0.84246207     0.11900
H712        H  0.56034228  0.29155878  0.79628032     0.11900
C713        C  0.59672402  0.04026987  0.70534565    -0.14300
C714        C  0.58275310  0.99517187  0.70805629     0.07900
C715        C  0.60880915  0.96192869  0.69285978    -0.14300
C716        C  0.64912137  0.97302589  0.67713655    -0.14300
C717        C  0.66366412  0.01776444  0.67531467     0.07900
C718        C  0.63670669  0.05146092  0.68895006    -0.14300
H719        H  0.57801120  0.06671277  0.71693954     0.11900
H720        H  0.59861070  0.92698056  0.69360486     0.11900
H721        H  0.66921499  0.94661138  0.66651196     0.11900
H722        H  0.64748168  0.08624424  0.68776040     0.11900
C723        C  0.90954431  0.03788734  0.70228284    -0.14300
C724        C  0.91741862  0.99342794  0.71237915     0.07900
C725        C  0.88411972  0.46072352  0.70431944    -0.14300
C726        C  0.84386696  0.47235276  0.68822941    -0.14300
C727        C  0.83599841  0.01670819  0.67877875     0.07900
C728        C  0.86958981  0.04925827  0.68553328    -0.14300
H729        H  0.93349236  0.06453003  0.70767571     0.11900
H730        H  0.88862590  0.42578081  0.71020143     0.11900
H731        H  0.81890083  0.44641938  0.68280904     0.11900
H732        H  0.86439661  0.08374830  0.67839851     0.11900
C733        C  0.00564036  0.93604085  0.76791316     0.85600
C734        C  0.54549449  0.94260111  0.74515357    -0.54700
C735        C  0.54408837  0.48192741  0.72890956     0.08500
C736        C  0.00198958  0.51162405  0.73706877     0.19500
C737        C  0.00752770  0.97822980  0.78818321    -0.55400
C738        C  0.50540055  0.51786865  0.77234451     0.08600
C739        C  0.96184482  0.94186044  0.74830956    -0.52500
C740        C  0.95903115  0.48123833  0.73187175     0.09200
H741        H  0.57445963  0.92007790  0.74322366     0.13700
H742        H  0.00144074  0.54376117  0.72429242    -0.00600
H743        H  0.00963006  0.97675664  0.81313090     0.14000
H744        H  0.93488302  0.91675631  0.74870559     0.13800
C745        C  0.79339888  0.54844073  0.63229303     0.01400
C746        C  0.79266805  0.52872143  0.66193853     0.01300
C747        C  0.74968216  0.51952888  0.67556556    -0.19200
C748        C  0.70788270  0.52888314  0.66009331     0.01400
C749        C  0.70902621  0.54805100  0.63034677     0.01300
C750        C  0.75168037  0.55872713  0.61730992    -0.19200
H751        H  0.75248391  0.57174696  0.59400202     0.03400
H752        H  0.74871703  0.50457697  0.69829634     0.03400
C753        C  0.70216063  0.52639984  0.33733582     0.01400
C754        C  0.70129049  0.54445981  0.36744266     0.01300
C755        C  0.74296295  0.55388759  0.38270501    -0.19200
C756        C  0.78567905  0.54434397  0.36935948     0.01400
C757        C  0.78695589  0.52673067  0.33918214     0.01300
C758        C  0.74517185  0.51801736  0.32350147    -0.19200
H759        H  0.74615723  0.50414942  0.30044808     0.03400
H760        H  0.74211358  0.56580819  0.40628843     0.03400
O761        O  0.96539986  0.52202772  0.96933530    -0.72700
O762        O  0.96921404  0.93319139  0.03256836    -0.72900
O763        O  0.96977235  0.52321109  0.03164571    -0.72800
O764        O  0.96468960  0.93171048  0.97063708    -0.72800
O765        O  0.53919206  0.93365188  0.96667425    -0.72700
O766        O  0.54453492  0.52040229  0.03098450    -0.72700
O767        O  0.54367893  0.92998871  0.02853066    -0.72700
O768        O  0.54019895  0.52386591  0.96930818    -0.72900
V769        V  0.96868502  0.97757270  0.00098348     1.35200
V770        V  0.54045348  0.97696658  0.99893101     1.35200
C771        C  0.50231409  0.53849679  0.95880581     0.76600
C772        C  0.00714333  0.91602200  0.04104903     0.76600
C773        C  0.00803891  0.53690924  0.04211823     0.76500
C774        C  0.50099427  0.91740542  0.95795562     0.76400
C775        C  0.01023874  0.68525275  0.12769183     0.01400
C776        C  0.00212394  0.68559772  0.15982861     0.01300
C777        C  0.99765841  0.72733407  0.17493710    -0.19200
C778        C  0.00143616  0.76848729  0.15892696     0.01400
C779        C  0.00966017  0.76756603  0.12682898     0.01300
C780        C  0.01433546  0.72608906  0.11188299    -0.19200
H781        H  0.01942721  0.72554917  0.08717381     0.03400
H782        H  0.99245686  0.72781063  0.19960711     0.03400
C783        C  0.99036276  0.93570036  0.23063067     0.85600
C784        C  0.94934961  0.94248682  0.25246525    -0.54700
C785        C  0.95043660  0.48135353  0.26927948     0.08500
C786        C  0.99315335  0.51070156  0.26224684     0.19500
C787        C  0.99051513  0.97829857  0.21070451    -0.55400
C788        C  0.99203485  0.51749978  0.22703934     0.08600
C789        C  0.53312430  0.94052746  0.25135769    -0.54900
C790        C  0.53560236  0.47977061  0.26795780     0.09200
H791        H  0.92024547  0.92016392  0.25364226     0.13700
H792        H  0.99389917  0.54263629  0.27527534    -0.00600
H793        H  0.49020341  0.97752230  0.18570958     0.14000
H794        H  0.56013690  0.91537097  0.25128711     0.13800
C795        C  0.49819957  0.76913184  0.84007200     0.01400
C796        C  0.49589457  0.76899685  0.87257406     0.01300
C797        C  0.49583825  0.72800339  0.88838594    -0.19200
C798        C  0.49824814  0.68674845  0.87290802     0.01400
C799        C  0.49962413  0.68617751  0.84026214     0.01300
C800        C  0.49950590  0.72759683  0.82437869    -0.19200
H801        H  0.50117809  0.72755599  0.79946790     0.03400
H802        H  0.49477529  0.72823381  0.91334753     0.03400
O803        O  0.54551221  0.01764873  0.52982801    -0.72700
O804        O  0.94918870  0.01646196  0.47036519    -0.72900
O805        O  0.54095050  0.01643851  0.46775823    -0.72800
O806        O  0.95375169  0.01779272  0.53240429    -0.72800
O807        O  0.95305619  0.59075329  0.53158208    -0.72700
O808        O  0.54150420  0.58942042  0.46737976    -0.72700
O809        O  0.94904994  0.58940928  0.46941420    -0.72700
O810        O  0.54551774  0.59060095  0.52953872    -0.72900
V811        V  0.99735166  0.01856341  0.50008672     1.35200
V812        V  0.99728454  0.58867791  0.49948141     1.35200
C813        C  0.56148145  0.55416889  0.54029648     0.76600
C814        C  0.93315783  0.55259737  0.45929236     0.76600
C815        C  0.55576027  0.55268058  0.45628359     0.76500
C816        C  0.93885693  0.55442463  0.54328062     0.76400
C817        C  0.53107223  0.84543042  0.17357320    -0.14300
C818        C  0.99771223  0.81151608  0.17642931     0.07900
C819        C  0.96122097  0.81823799  0.19690155    -0.14300
C820        C  0.95795244  0.85777651  0.21419391    -0.14300
C821        C  0.99128693  0.89218093  0.21148741     0.07900
C822        C  0.52776305  0.88518365  0.19073029    -0.14300
H823        H  0.56015181  0.84090913  0.15842461     0.11900
H824        H  0.93499064  0.79265042  0.19958827     0.11900
H825        H  0.92940903  0.86002174  0.22968904     0.11900
H826        H  0.55424756  0.91049692  0.18809811     0.11900
C827        C  0.96430344  0.63552756  0.19922565    -0.14300
C828        C  0.00017005  0.64320733  0.17818712     0.07900
C829        C  0.53452080  0.61023108  0.17492069    -0.14300
C830        C  0.53194771  0.56973950  0.19112775    -0.14300
C831        C  0.99565594  0.56173919  0.21157796     0.07900
C832        C  0.96218993  0.59516703  0.21589698    -0.14300
H833        H  0.93743130  0.66038968  0.20228223     0.11900
H834        H  0.56333216  0.61570206  0.15967343     0.11900
H835        H  0.55837388  0.54451730  0.18772064     0.11900
H836        H  0.93371380  0.58946467  0.23138183     0.11900
C837        C  0.53942425  0.60374443  0.93279885    -0.14300
C838        C  0.50169840  0.57446729  0.93522236     0.07900
C839        C  0.96369005  0.58052106  0.91535909    -0.14300
C840        C  0.96324817  0.61572852  0.89382858    -0.14300
C841        C  0.50046214  0.64572048  0.89226065     0.07900
C842        C  0.53855646  0.63927590  0.91181706    -0.14300
H843        H  0.56909750  0.60001636  0.94783322     0.11900
H844        H  0.93430923  0.55821356  0.91660956     0.11900
H845        H  0.93337085  0.62045945  0.87911868     0.11900
H846        H  0.56738991  0.66233587  0.91113041     0.11900
C847        C  0.95813289  0.85701202  0.92973097    -0.14300
C848        C  0.49875112  0.88201465  0.93398642     0.07900
C849        C  0.53743319  0.87173059  0.91590670    -0.14300
C850        C  0.53583360  0.83638925  0.89461667    -0.14300
C851        C  0.49572126  0.81053556  0.89132772     0.07900
C852        C  0.95682233  0.82132615  0.90883978    -0.14300
H853        H  0.92780180  0.86405686  0.94329698     0.11900
H854        H  0.56914573  0.89052145  0.91858860     0.11900
H855        H  0.56634322  0.82813633  0.88154019     0.11900
H856        H  0.92572903  0.80140628  0.90677709     0.11900
C857        C  0.54795366  0.85256600  0.06746997    -0.14300
C858        C  0.00881181  0.88014375  0.06467449     0.07900
C859        C  0.97104910  0.87231062  0.08409196    -0.14300
C860        C  0.97206203  0.83695965  0.10538581    -0.14300
C861        C  0.01067108  0.80862060  0.10741804     0.07900
C862        C  0.54869590  0.81694650  0.08843793    -0.14300
H863        H  0.57751542  0.85769928  0.05279804     0.11900
H864        H  0.94053140  0.89319014  0.08256116     0.11900
H865        H  0.94214652  0.83077781  0.11954266     0.11900
H866        H  0.57868475  0.79527120  0.08950116     0.11900
C867        C  0.54986844  0.59819100  0.07011620    -0.14300
C868        C  0.01004796  0.57190945  0.06633910     0.07900
C869        C  0.97168289  0.58063128  0.08506856    -0.14300
C870        C  0.97262157  0.61592356  0.10641038    -0.14300
C871        C  0.01168980  0.64344720  0.10905323     0.07900
C872        C  0.55047916  0.63391185  0.09102302    -0.14300
H873        H  0.57991775  0.59226724  0.05603177     0.11900
H874        H  0.94067372  0.56063959  0.08283008     0.11900
H875        H  0.94222246  0.62295195  0.11992241     0.11900
H876        H  0.58086603  0.65491942  0.09262329     0.11900
C877        C  0.85116307  0.50873766  0.39795500    -0.14300
C878        C  0.82724946  0.54778182  0.38930465     0.07900
C879        C  0.83899290  0.58879023  0.40328635    -0.14300
C880        C  0.87393870  0.59067339  0.42566103    -0.14300
C881        C  0.89719767  0.55137835  0.43486337     0.07900
C882        C  0.88571346  0.51048774  0.42050419    -0.14300
H883        H  0.84181213  0.47654837  0.38814664     0.11900
H884        H  0.82035510  0.61916195  0.39733451     0.11900
H885        H  0.88198014  0.62265372  0.43626984     0.11900
H886        H  0.90303837  0.47962238  0.42699422     0.11900
C887        C  0.63229968  0.51018755  0.39228647    -0.14300
C888        C  0.65845112  0.54856827  0.38559625     0.07900
C889        C  0.64825761  0.58910416  0.40062116    -0.14300
C890        C  0.61371307  0.59086793  0.42285314    -0.14300
C891        C  0.58914880  0.55192936  0.43073147     0.07900
C892        C  0.59795493  0.51184378  0.41467600    -0.14300
H893        H  0.64019780  0.47834562  0.38147831     0.11900
H894        H  0.66843208  0.61894897  0.39603358     0.11900
H895        H  0.60757338  0.62223525  0.43476185     0.11900
H896        H  0.57922631  0.48139976  0.42006960     0.11900
C897        C  0.85954727  0.55000873  0.31208457    -0.14300
C898        C  0.83118083  0.51594371  0.32384616     0.07900
C899        C  0.84427534  0.47106129  0.32000436    -0.14300
C900        C  0.88433537  0.46019518  0.30393479    -0.14300
C901        C  0.91167035  0.49393573  0.29035172     0.07900
C902        C  0.89934898  0.53912536  0.29535179    -0.14300
H903        H  0.85002729  0.58494701  0.31498178     0.11900
H904        H  0.82322101  0.44434339  0.32932369     0.11900
H905        H  0.89335278  0.42506551  0.30179323     0.11900
H906        H  0.91927031  0.56608267  0.28541051     0.11900
C907        C  0.64937824  0.47010571  0.31282611    -0.14300
C908        C  0.65896744  0.51490543  0.32031798     0.07900
C909        C  0.62719826  0.54825936  0.31158909    -0.14300
C910        C  0.58710348  0.53705933  0.29494888    -0.14300
C911        C  0.57723806  0.49200767  0.28721345     0.07900
C912        C  0.60886656  0.45871396  0.29699612    -0.14300
H913        H  0.67307085  0.44373739  0.31967120     0.11900
H914        H  0.63394436  0.58313817  0.31711555     0.11900
H915        H  0.56467079  0.56406324  0.28764897     0.11900
H916        H  0.60266155  0.42349737  0.29263887     0.11900
C917        C  0.64440950  0.51175426  0.60151258    -0.14300
C918        C  0.66752165  0.55113588  0.61027641     0.07900
C919        C  0.65495937  0.59201629  0.59635921    -0.14300
C920        C  0.61995190  0.59338989  0.57396813    -0.14300
C921        C  0.59744887  0.55371958  0.56474289     0.07900
C922        C  0.60976004  0.51301876  0.57906074    -0.14300
H923        H  0.65449652  0.47964200  0.61111840     0.11900
H924        H  0.67297525  0.62267976  0.60237867     0.11900
H925        H  0.61124824  0.62525150  0.56339420     0.11900
H926        H  0.59309158  0.48185790  0.57255399     0.11900
C927        C  0.86076497  0.51297492  0.60656966    -0.14300
C928        C  0.83604657  0.55200648  0.61391841     0.07900
C929        C  0.84764497  0.59269495  0.59956041    -0.14300
C930        C  0.88231756  0.59397650  0.57735015    -0.14300
C931        C  0.90543713  0.55439945  0.56883257     0.07900
C932        C  0.89512124  0.51414691  0.58423803    -0.14300
H933        H  0.85176305  0.48107348  0.61688813     0.11900
H934        H  0.82858904  0.62307713  0.60471134     0.11900
H935        H  0.88971926  0.62551987  0.56599293     0.11900
H936        H  0.91263681  0.48318642  0.57836464     0.11900
C937        C  0.53609936  0.56964332  0.81322414    -0.14300
C938        C  0.50594803  0.56213356  0.78830866     0.07900
C939        C  0.97490478  0.59622826  0.77986776    -0.14300
C940        C  0.97289826  0.63637852  0.79673411    -0.14300
C941        C  0.50227408  0.64348226  0.82219076     0.07900
C942        C  0.53469671  0.61003368  0.82969207    -0.14300
H943        H  0.56096027  0.54423184  0.81989786     0.11900
H944        H  0.95108221  0.59121326  0.76091603     0.11900
H945        H  0.94774808  0.66161545  0.79023977     0.11900
H946        H  0.55912756  0.61510277  0.84828007     0.11900
C947        C  0.53730925  0.85710274  0.78256177    -0.14300
C948        C  0.50513861  0.89225303  0.78674269     0.07900
C949        C  0.97030076  0.88585822  0.80880969    -0.14300
C950        C  0.96784438  0.84618809  0.82613146    -0.14300
C951        C  0.50033728  0.81172675  0.82201130     0.07900
C952        C  0.53488312  0.81764146  0.79998157    -0.14300
H953        H  0.56429689  0.85876506  0.76579242     0.11900
H954        H  0.94459389  0.91168676  0.81248149     0.11900
H955        H  0.94015744  0.84222121  0.84247160     0.11900
H956        H  0.56031805  0.79154427  0.79625495     0.11900
C957        C  0.59671143  0.54027151  0.70533095    -0.14300
C958        C  0.58276325  0.49516944  0.70806492     0.07900
C959        C  0.60884084  0.46192255  0.69288773    -0.14300
C960        C  0.64915249  0.47302172  0.67716472    -0.14300
C961        C  0.66367226  0.51776501  0.67532017     0.07900
C962        C  0.63669198  0.55146388  0.68893298    -0.14300
H963        H  0.57798243  0.56671929  0.71690779     0.11900
H964        H  0.59866000  0.42697084  0.69364632     0.11900
H965        H  0.66926249  0.44660483  0.66655606     0.11900
H966        H  0.64744793  0.58625111  0.68772495     0.11900
C967        C  0.90954448  0.53789298  0.70229754    -0.14300
C968        C  0.91742798  0.49342919  0.71238131     0.07900
C969        C  0.88410037  0.96072568  0.70432911    -0.14300
C970        C  0.84384889  0.97235383  0.68823770    -0.14300
C971        C  0.83600638  0.51671142  0.67878385     0.07900
C972        C  0.86958900  0.54926538  0.68554935    -0.14300
H973        H  0.93348576  0.56453767  0.70769971     0.11900
H974        H  0.88859706  0.92578447  0.71022131     0.11900
H975        H  0.81887575  0.94642311  0.68282682     0.11900
H976        H  0.86438839  0.58375778  0.67842436     0.11900
loop_ 
_geom_bond_atom_site_label_1 
_geom_bond_atom_site_label_2 
_geom_bond_distance 
_geom_bond_site_symmetry_2 
_ccdc_geom_bond_type 
C1            C7   1.535       .  S
C1            C5   1.535       .  S
C1          C490   1.539       .  S
C1          C704   1.539       .  S
C2          C489   1.539       .  S
C2            H9   1.078       .  S
C2          C247   1.367       .  D
C3          C492   1.550   1_565  S
C3          C246   1.367       .  D
C3          C226   1.500       .  S
C4            C8   1.556   1_545  S
C4          C491   1.550   1_545  S
C4          C494   1.547       .  S
C4           H10   1.106       .  S
C5           H11   1.086       .  S
C5          C738   1.367       .  D
C6          C492   1.547       .  S
C6          C737   1.367   1_545  D
C6          C206   1.489       .  S
C7           H12   1.083       .  S
C7          C252   1.374       .  D
C8          C251   1.374       .  D
C8          C236   1.514       .  S
C13          C14   1.416       .  A
C13          C18   1.404       .  A
C13         C196   1.481       .  S
C14          C15   1.411       .  A
C14         C239   1.494       .  S
C15          C16   1.411       .  A
C15          H20   1.084       .  S
C16          C17   1.413       .  A
C16         C229   1.485       .  S
C17          C18   1.401       .  A
C17         C186   1.485       .  S
C18          H19   1.085       .  S
C21          C22   1.415       .  A
C21          C26   1.411       .  A
C21         C176   1.492       .  S
C22          C23   1.404       .  A
C22         C156   1.481       .  S
C23          C24   1.401       .  A
C23          H28   1.085       .  S
C24          C25   1.413       .  A
C24         C146   1.485       .  S
C25          C26   1.412       .  A
C25         C166   1.485       .  S
C26          H27   1.084       .  S
O29         V281   1.910   1_546  S
O29         C527   1.267       .  A
O30          V37   1.905       .  S
O30          C40   1.266       .  A
O31         V281   1.903   1_545  S
O31          C41   1.265       .  A
O32          V37   1.901   1_556  S
O32         C530   1.265       .  A
O33          V38   1.905       .  S
O33          C42   1.266       .  A
O34         V282   1.904   1_544  S
O34         C529   1.266       .  A
O35          V38   1.901   1_554  S
O35         C528   1.265       .  A
O36         V282   1.898   1_545  S
O36          C39   1.265       .  A
V37         O273   1.910   1_554  S
V37         O275   1.903       .  S
V37         V526   2.085   1_554  T
V38         O278   1.904   1_556  S
V38         O280   1.898       .  S
V38         V525   2.085   1_456  T
C39         C106   1.482       .  S
C39         O517   1.267   1_455  A
C40         C126   1.482       .  S
C40         O523   1.265       .  A
C41         C136   1.482       .  S
C41         O522   1.266       .  A
C42         C116   1.483   1_455  S
C42         O520   1.265   1_455  A
C43          C44   1.418       .  A
C43          C48   1.401       .  A
C43         C139   1.485       .  S
C44          C45   1.411       .  A
C44          C96   1.494       .  S
C45          C46   1.413       .  A
C45          H50   1.084       .  S
C46          C47   1.417       .  A
C46          C86   1.494       .  S
C47          C48   1.402       .  A
C47         C129   1.485       .  S
C48          H49   1.085       .  S
C51          C52   1.540       .  S
C51          C55   1.535       .  S
C51         C545   1.536       .  S
C51          C89   1.540       .  S
C52          H59   1.077       .  S
C52         C297   1.368       .  D
C53          C54   1.549   1_565  S
C53         C296   1.368       .  D
C53         C169   1.502       .  S
C54          C56   1.543       .  S
C54         C546   1.556   1_545  S
C54          H60   1.106       .  S
C55         H549   1.086       .  S
C55         C300   1.366       .  D
C56         C299   1.366   1_545  D
C56          C99   1.482       .  S
C57         C539   1.536   1_455  S
C57          H62   1.083       .  S
C57         C302   1.374       .  D
C58         C542   1.556   1_465  S
C58         C301   1.374       .  D
C58         C179   1.510       .  S
H61         C543   1.086       .  S
C63          C64   1.414       .  A
C63          C68   1.412       .  A
C63         C219   1.492   1_655  S
C64          C65   1.400       .  A
C64         C119   1.481       .  S
C65          C66   1.402       .  A
C65          H70   1.085       .  S
C66          C67   1.419       .  A
C66         C109   1.483   1_655  S
C67          C68   1.413       .  A
C67         C209   1.496   1_655  S
C68          H69   1.084   1_655  S
O71         V567   1.898   1_455  S
O71         C325   1.265       .  A
O72          V79   1.898       .  S
O72         C326   1.265       .  A
O73         V567   1.897   1_455  S
O73         C327   1.264       .  A
O74          V79   1.896       .  S
O74         C328   1.264       .  A
O75          V80   1.902       .  S
O75          C84   1.265       .  A
O76         V568   1.901   1_455  S
O76          C83   1.265       .  A
O77          V80   1.909       .  S
O77          C82   1.267       .  A
O78         V568   1.909   1_455  S
O78          C81   1.267       .  A
V79         O559   1.898       .  S
V79         O561   1.897       .  S
V79         V324   2.086       .  T
V80         O564   1.901       .  S
V80         O566   1.909       .  S
V80         V323   2.086       .  T
C81         C189   1.485       .  S
C81         O315   1.265       .  A
C82         C149   1.484       .  S
C82         O316   1.265       .  A
C83         C159   1.478       .  S
C83         O317   1.264       .  A
C84         C199   1.479       .  S
C84         O318   1.264       .  A
C85          C90   1.402       .  A
C85         C574   1.405   1_455  A
C85          H91   1.082       .  S
C86          C87   1.401       .  A
C86         C573   1.405       .  A
C87          C88   1.400       .  A
C87          H92   1.084       .  S
C88          C89   1.415       .  A
C88          H93   1.073       .  S
C89         C578   1.410       .  A
C90         C577   1.410   1_455  A
C90          H94   1.083       .  S
C95          C96   1.408       .  A
C95         C100   1.404       .  A
C95         H101   1.083       .  S
C96         C585   1.406       .  A
C97          C98   1.398       .  A
C97         C584   1.406       .  A
C97         H102   1.082       .  S
C98         C587   1.403   1_455  A
C98         H103   1.083       .  S
C99         C100   1.403       .  A
C99         C586   1.403       .  A
C100        H104   1.082       .  S
C105        C106   1.404       .  A
C105        C110   1.396       .  A
C105        H111   1.083       .  S
C106        C595   1.408   1_455  A
C107        C108   1.404       .  A
C107        C594   1.408       .  A
C107        H112   1.083       .  S
C108        C597   1.404       .  A
C108        H113   1.083       .  S
C109        C110   1.403       .  A
C109        C596   1.404   1_455  A
C110        H114   1.083       .  S
C115        C120   1.398       .  A
C115        C604   1.406       .  A
C115        H121   1.083       .  S
C116        C117   1.408   1_655  A
C116        C603   1.406       .  A
C117        C118   1.401       .  A
C117        H122   1.083       .  S
C118        C119   1.403   1_455  A
C118        H123   1.083       .  S
C119        C608   1.402       .  A
C120        C607   1.402       .  A
C120        H124   1.083       .  S
C125        C130   1.398       .  A
C125        C614   1.405       .  A
C125        H131   1.083       .  S
C126        C127   1.407       .  A
C126        C613   1.405       .  A
C127        C128   1.401       .  A
C127        H132   1.083       .  S
C128        C129   1.404       .  A
C128        H133   1.083       .  S
C129        C618   1.404       .  A
C130        C617   1.404       .  A
C130        H134   1.083       .  S
C135        C140   1.399       .  A
C135        C624   1.405       .  A
C135        H141   1.083       .  S
C136        C137   1.407       .  A
C136        C623   1.405       .  A
C137        C138   1.401       .  A
C137        H142   1.083       .  S
C138        C139   1.404       .  A
C138        H143   1.083       .  S
C139        C628   1.404       .  A
C140        C627   1.404       .  A
C140        H144   1.083       .  S
C145        C146   1.403       .  A
C145        C150   1.399       .  A
C145        H151   1.083   1_545  S
C146        C147   1.405       .  A
C147        C148   1.402       .  A
C147        H152   1.083       .  S
C148        C149   1.406       .  A
C148        H153   1.083       .  S
C149        C150   1.407       .  A
C150        H154   1.083   1_545  S
C155        C156   1.403       .  A
C155        C160   1.398       .  A
C155        H161   1.083   1_545  S
C156        C157   1.404       .  A
C157        C158   1.397       .  A
C157        H162   1.083       .  S
C158        C159   1.405       .  A
C158        H163   1.083       .  S
C159        C160   1.406       .  A
C160        H164   1.083   1_545  S
C165        C166   1.405       .  A
C165        C170   1.406       .  A
C165        H171   1.083       .  S
C166        C167   1.399   1_545  A
C167        C168   1.397       .  A
C167        H172   1.083       .  S
C168        C169   1.412       .  A
C168        H173   1.082       .  S
C169        C170   1.408   1_565  A
C170        H174   1.081       .  S
C175        C176   1.400   1_565  A
C175        C180   1.400       .  A
C175        H181   1.083       .  S
C176        C177   1.404       .  A
C177        C178   1.407       .  A
C177        H182   1.083       .  S
C178        C179   1.412   1_545  A
C178        H183   1.080       .  S
C179        C180   1.413       .  A
C180        H184   1.080       .  S
C185        C186   1.403       .  A
C185        C190   1.397       .  A
C185        H191   1.082   1_545  S
C186        C187   1.405       .  A
C187        C188   1.403       .  A
C187        H192   1.083       .  S
C188        C189   1.407       .  A
C188        H193   1.083       .  S
C189        C190   1.406       .  A
C190        H194   1.083   1_545  S
C195        C196   1.402       .  A
C195        C200   1.396       .  A
C195        H201   1.083   1_545  S
C196        C197   1.404       .  A
C197        C198   1.399       .  A
C197        H202   1.083       .  S
C198        C199   1.406       .  A
C198        H203   1.083       .  S
C199        C200   1.406       .  A
C200        H204   1.083   1_545  S
C205        C206   1.406       .  A
C205        C210   1.400       .  A
C205        H211   1.083       .  S
C206        C695   1.403   1_455  A
C207        C208   1.403       .  A
C207        C694   1.403       .  A
C207        H212   1.082       .  S
C208        C697   1.408       .  A
C208        H213   1.083       .  S
C209        C210   1.406       .  A
C209        C696   1.408   1_455  A
C210        H214   1.082       .  S
C215        C216   1.414       .  A
C215        C220   1.399       .  A
C215        H221   1.074       .  S
C216        C489   1.539       .  S
C216        C705   1.411   1_455  A
C217        C218   1.402       .  A
C217        C704   1.411       .  A
C217        H222   1.083       .  S
C218        C707   1.405       .  A
C218        H223   1.082       .  S
C219        C220   1.402       .  A
C219        C706   1.405   1_455  A
C220        H224   1.084       .  S
C225        C226   1.408   1_545  A
C225        C230   1.406       .  A
C225        H231   1.082       .  S
C226        C227   1.411       .  A
C227        C228   1.398       .  A
C227        H232   1.082       .  S
C228        C229   1.400   1_565  A
C228        H233   1.083       .  S
C229        C230   1.405       .  A
C230        H234   1.083       .  S
C235        C236   1.412   1_545  A
C235        C240   1.406       .  A
C235        H241   1.080       .  S
C236        C481   1.415       .  A
C237        C238   1.401       .  A
C237        C480   1.415       .  A
C237        H242   1.078       .  S
C238        C483   1.400       .  A
C238        H243   1.084       .  S
C239        C240   1.405       .  A
C239        C482   1.400   1_545  A
C240        H244   1.082       .  S
C245        C734   1.539       .  S
C245        C251   1.535       .  S
C245        C249   1.535       .  S
C245        C948   1.539       .  S
C246        C733   1.539       .  S
C246        H253   1.078       .  S
C247        C736   1.550       .  S
C247        C470   1.500       .  S
C248        C735   1.550       .  S
C248        C252   1.556       .  S
C248        C738   1.547       .  S
C248        H254   1.106       .  S
C249        H255   1.086       .  S
C249        C494   1.367   1_565  D
C250        C736   1.547       .  S
C250        C493   1.367       .  D
C250        C450   1.489       .  S
C251        H256   1.083       .  S
C252        C480   1.514       .  S
C257        C258   1.416       .  A
C257        C262   1.404       .  A
C257        C440   1.481       .  S
C258        C259   1.411       .  A
C258        C483   1.494       .  S
C259        C260   1.411       .  A
C259        H264   1.084       .  S
C260        C261   1.413       .  A
C260        C473   1.485       .  S
C261        C262   1.401       .  A
C261        C430   1.485       .  S
C262        H263   1.085       .  S
C265        C266   1.415       .  A
C265        C270   1.411       .  A
C265        C420   1.491       .  S
C266        C267   1.404       .  A
C266        C400   1.481       .  S
C267        C268   1.401       .  A
C267        H272   1.085       .  S
C268        C269   1.413       .  A
C268        C390   1.485       .  S
C269        C270   1.412       .  A
C269        C410   1.485       .  S
C270        H271   1.084       .  S
O273        C771   1.267       .  A
O274        V281   1.905       .  S
O274        C284   1.266       .  A
O275        C285   1.265       .  A
O276        V281   1.901   1_556  S
O276        C774   1.265       .  A
O277        V282   1.905       .  S
O277        C286   1.266       .  A
O278        C773   1.266       .  A
O279        V282   1.901   1_554  S
O279        C772   1.265       .  A
O280        C283   1.265       .  A
V281        V770   2.085   1_554  T
V282        V769   2.085   1_456  T
C283        C350   1.482       .  S
C283        O761   1.267   1_455  A
C284        C370   1.482       .  S
C284        O767   1.265       .  A
C285        C380   1.482       .  S
C285        O766   1.266       .  A
C286        C360   1.483   1_455  S
C286        O764   1.265   1_455  A
C287        C288   1.418       .  A
C287        C292   1.401       .  A
C287        C383   1.485       .  S
C288        C289   1.411       .  A
C288        C340   1.494       .  S
C289        C290   1.413       .  A
C289        H294   1.084       .  S
C290        C291   1.417       .  A
C290        C330   1.494       .  S
C291        C292   1.402       .  A
C291        C373   1.485       .  S
C292        H293   1.085       .  S
C295        C296   1.540       .  S
C295        C789   1.536       .  S
C295        C299   1.535       .  S
C295        C333   1.540       .  S
C296        H303   1.077       .  S
C297        C298   1.549       .  S
C297        C413   1.502       .  S
C298        C790   1.556       .  S
C298        C300   1.543       .  S
C298        H304   1.106       .  S
C299        H793   1.086       .  S
C300        C343   1.482       .  S
C301        C783   1.536   1_455  S
C301        H306   1.083       .  S
C302        C786   1.556   1_455  S
C302        C423   1.510       .  S
H305        C787   1.086       .  S
C307        C308   1.414       .  A
C307        C312   1.412       .  A
C307        C463   1.492   1_655  S
C308        C309   1.400       .  A
C308        C363   1.481       .  S
C309        C310   1.402       .  A
C309        H314   1.085       .  S
C310        C311   1.419       .  A
C310        C353   1.484   1_655  S
C311        C312   1.413       .  A
C311        C453   1.496   1_655  S
C312        H313   1.084   1_655  S
O315        V811   1.898   1_455  S
O316        V323   1.898       .  S
O317        V811   1.897   1_455  S
O318        V323   1.896       .  S
O319        V324   1.902       .  S
O319        C328   1.265       .  A
O320        V812   1.901   1_455  S
O320        C327   1.265       .  A
O321        V324   1.909       .  S
O321        C326   1.267       .  A
O322        V812   1.909   1_455  S
O322        C325   1.267       .  A
V323        O803   1.898       .  S
V323        O805   1.897       .  S
V324        O808   1.901       .  S
V324        O810   1.909       .  S
C325        C433   1.485       .  S
C326        C393   1.484       .  S
C327        C403   1.478       .  S
C328        C443   1.479       .  S
C329        C818   1.405   1_455  A
C329        C334   1.402       .  A
C329        H335   1.082       .  S
C330        C817   1.405       .  A
C330        C331   1.401       .  A
C331        C332   1.400       .  A
C331        H336   1.084       .  S
C332        C333   1.415       .  A
C332        H337   1.073       .  S
C333        C822   1.410       .  A
C334        C821   1.410   1_455  A
C334        H338   1.083       .  S
C339        C340   1.408       .  A
C339        C344   1.404       .  A
C339        H345   1.083       .  S
C340        C829   1.406       .  A
C341        C828   1.406       .  A
C341        C342   1.398       .  A
C341        H346   1.082       .  S
C342        C831   1.403   1_455  A
C342        H347   1.083       .  S
C343        C830   1.403       .  A
C343        C344   1.403       .  A
C344        H348   1.082       .  S
C349        C350   1.404       .  A
C349        C354   1.396       .  A
C349        H355   1.083       .  S
C350        C839   1.408   1_455  A
C351        C838   1.408       .  A
C351        C352   1.405       .  A
C351        H356   1.083       .  S
C352        C841   1.404       .  A
C352        H357   1.083       .  S
C353        C840   1.404   1_455  A
C353        C354   1.403       .  A
C354        H358   1.083       .  S
C359        C848   1.406       .  A
C359        C364   1.398       .  A
C359        H365   1.083       .  S
C360        C847   1.406       .  A
C360        C361   1.408   1_655  A
C361        C362   1.401       .  A
C361        H366   1.083       .  S
C362        C363   1.403   1_455  A
C362        H367   1.083       .  S
C363        C852   1.402       .  A
C364        C851   1.402       .  A
C364        H368   1.083       .  S
C369        C858   1.405       .  A
C369        C374   1.398       .  A
C369        H375   1.083       .  S
C370        C857   1.405       .  A
C370        C371   1.407       .  A
C371        C372   1.401       .  A
C371        H376   1.083       .  S
C372        C373   1.404       .  A
C372        H377   1.083       .  S
C373        C862   1.404       .  A
C374        C861   1.404       .  A
C374        H378   1.083       .  S
C379        C868   1.405       .  A
C379        C384   1.399       .  A
C379        H385   1.083       .  S
C380        C867   1.405       .  A
C380        C381   1.407       .  A
C381        C382   1.401       .  A
C381        H386   1.083       .  S
C382        C383   1.404       .  A
C382        H387   1.083       .  S
C383        C872   1.404       .  A
C384        C871   1.404       .  A
C384        H388   1.083       .  S
C389        C390   1.403       .  A
C389        C394   1.399       .  A
C389        H395   1.083       .  S
C390        C391   1.405       .  A
C391        C392   1.402       .  A
C391        H396   1.083       .  S
C392        C393   1.406       .  A
C392        H397   1.083       .  S
C393        C394   1.407       .  A
C394        H398   1.083       .  S
C399        C400   1.403       .  A
C399        C404   1.398       .  A
C399        H405   1.083       .  S
C400        C401   1.404       .  A
C401        C402   1.397       .  A
C401        H406   1.083       .  S
C402        C403   1.405       .  A
C402        H407   1.083       .  S
C403        C404   1.406       .  A
C404        H408   1.083       .  S
C409        C410   1.405       .  A
C409        C414   1.406       .  A
C409        H415   1.083       .  S
C410        C411   1.399       .  A
C411        C412   1.397       .  A
C411        H416   1.083       .  S
C412        C413   1.412       .  A
C412        H417   1.082       .  S
C413        C414   1.408       .  A
C414        H418   1.081       .  S
C419        C420   1.400       .  A
C419        C424   1.400       .  A
C419        H425   1.083       .  S
C420        C421   1.404       .  A
C421        C422   1.407       .  A
C421        H426   1.083       .  S
C422        C423   1.412       .  A
C422        H427   1.080       .  S
C423        C424   1.413       .  A
C424        H428   1.080       .  S
C429        C430   1.403       .  A
C429        C434   1.397       .  A
C429        H435   1.082       .  S
C430        C431   1.405       .  A
C431        C432   1.403       .  A
C431        H436   1.083       .  S
C432        C433   1.407       .  A
C432        H437   1.083       .  S
C433        C434   1.406       .  A
C434        H438   1.083       .  S
C439        C440   1.402       .  A
C439        C444   1.396       .  A
C439        H445   1.083       .  S
C440        C441   1.404       .  A
C441        C442   1.399       .  A
C441        H446   1.083       .  S
C442        C443   1.406       .  A
C442        H447   1.083       .  S
C443        C444   1.406       .  A
C444        H448   1.083       .  S
C449        C450   1.406       .  A
C449        C454   1.400       .  A
C449        H455   1.083       .  S
C450        C939   1.403   1_455  A
C451        C938   1.403       .  A
C451        C452   1.403       .  A
C451        H456   1.082       .  S
C452        C941   1.408       .  A
C452        H457   1.083       .  S
C453        C940   1.408   1_455  A
C453        C454   1.406       .  A
C454        H458   1.082       .  S
C459        C460   1.414       .  A
C459        C464   1.399       .  A
C459        H465   1.074       .  S
C460        C733   1.539       .  S
C460        C949   1.411   1_455  A
C461        C948   1.411       .  A
C461        C462   1.402       .  A
C461        H466   1.083       .  S
C462        C951   1.405       .  A
C462        H467   1.082       .  S
C463        C950   1.405   1_455  A
C463        C464   1.402       .  A
C464        H468   1.084       .  S
C469        C470   1.408       .  A
C469        C474   1.406       .  A
C469        H475   1.082       .  S
C470        C471   1.411       .  A
C471        C472   1.398       .  A
C471        H476   1.082       .  S
C472        C473   1.400       .  A
C472        H477   1.083       .  S
C473        C474   1.405       .  A
C474        H478   1.083       .  S
C479        C480   1.412       .  A
C479        C484   1.406       .  A
C479        H485   1.080       .  S
C481        C482   1.401       .  A
C481        H486   1.078       .  S
C482        H487   1.084       .  S
C483        C484   1.405       .  A
C484        H488   1.082       .  S
C489        C495   1.535   1_455  S
C489        C493   1.535       .  S
C490        H497   1.078       .  S
C490        C735   1.367       .  D
C491        C734   1.367       .  D
C491        C714   1.500       .  S
C492        C496   1.556   1_445  S
C492        H498   1.106       .  S
C493        H499   1.086       .  S
C494        C694   1.489       .  S
C495        H500   1.083       .  S
C495        C740   1.374       .  D
C496        C739   1.374       .  D
C496        C724   1.514       .  S
C501        C502   1.416       .  A
C501        C506   1.404       .  A
C501        C684   1.481       .  S
C502        C503   1.411       .  A
C502        C727   1.494       .  S
C503        C504   1.411       .  A
C503        H508   1.084       .  S
C504        C505   1.413       .  A
C504        C717   1.485       .  S
C505        C506   1.401       .  A
C505        C674   1.485       .  S
C506        H507   1.085       .  S
C509        C510   1.415       .  A
C509        C514   1.411       .  A
C509        C664   1.492       .  S
C510        C511   1.404       .  A
C510        C644   1.481       .  S
C511        C512   1.401       .  A
C511        H516   1.085       .  S
C512        C513   1.413       .  A
C512        C634   1.485       .  S
C513        C514   1.412       .  A
C513        C654   1.485       .  S
C514        H515   1.084       .  S
O517        V769   1.910   1_546  S
O518        V525   1.905       .  S
O518        C528   1.266   1_655  A
O519        V769   1.903   1_545  S
O519        C529   1.265   1_655  A
O520        V525   1.901   1_556  S
O521        V526   1.905       .  S
O521        C530   1.266       .  A
O522        V770   1.904   1_544  S
O523        V526   1.901   1_554  S
O524        V770   1.898   1_545  S
O524        C527   1.265       .  A
V525        O761   1.910   1_554  S
V525        O763   1.903       .  S
V526        O766   1.904   1_556  S
V526        O768   1.898       .  S
C527        C594   1.482       .  S
C528        C614   1.482       .  S
C529        C624   1.482       .  S
C530        C604   1.483       .  S
C531        C532   1.418       .  A
C531        C536   1.401       .  A
C531        C627   1.485       .  S
C532        C533   1.411   1_455  A
C532        C584   1.494       .  S
C533        C534   1.413   1_655  A
C533        H538   1.084       .  S
C534        C535   1.417       .  A
C534        C574   1.494   1_455  S
C535        C536   1.402       .  A
C535        C617   1.485       .  S
C536        H537   1.085       .  S
C539        C540   1.540       .  S
C539        C543   1.535       .  S
C539        C577   1.540       .  S
C540        H547   1.077       .  S
C540        C785   1.368       .  D
C541        C542   1.549   1_565  S
C541        C784   1.368       .  D
C541        C657   1.502       .  S
C542        C544   1.543       .  S
C542        H548   1.106       .  S
C543        C788   1.366       .  D
C544        C787   1.366   1_545  D
C544        C587   1.482       .  S
C545        H550   1.083       .  S
C545        C790   1.374       .  D
C546        C789   1.374       .  D
C546        C667   1.510       .  S
C551        C552   1.414       .  A
C551        C556   1.412       .  A
C551        C707   1.492       .  S
C552        C553   1.400       .  A
C552        C607   1.481       .  S
C553        C554   1.402       .  A
C553        H558   1.085       .  S
C554        C555   1.419       .  A
C554        C597   1.483       .  S
C555        C556   1.413       .  A
C555        C697   1.496       .  S
C556        H557   1.084       .  S
O559        C813   1.265       .  A
O560        V567   1.898       .  S
O560        C814   1.265       .  A
O561        C815   1.264       .  A
O562        V567   1.896       .  S
O562        C816   1.264       .  A
O563        V568   1.902       .  S
O563        C572   1.265       .  A
O564        C571   1.265       .  A
O565        V568   1.909       .  S
O565        C570   1.267       .  A
O566        C569   1.267       .  A
V567        V812   2.086       .  T
V568        V811   2.086       .  T
C569        C677   1.485       .  S
C569        O803   1.265       .  A
C570        C637   1.484       .  S
C570        O804   1.265       .  A
C571        C647   1.478       .  S
C571        O805   1.264       .  A
C572        C687   1.479       .  S
C572        O806   1.264       .  A
C573        C578   1.402       .  A
C573        H579   1.082       .  S
C574        C575   1.401       .  A
C575        C576   1.400       .  A
C575        H580   1.084       .  S
C576        C577   1.415       .  A
C576        H581   1.073       .  S
C578        H582   1.083       .  S
C583        C584   1.408   1_655  A
C583        C588   1.404       .  A
C583        H589   1.083       .  S
C585        C586   1.398       .  A
C585        H590   1.082       .  S
C586        H591   1.083       .  S
C587        C588   1.403       .  A
C588        H592   1.082       .  S
C593        C594   1.404       .  A
C593        C598   1.396       .  A
C593        H599   1.083       .  S
C595        C596   1.404       .  A
C595        H600   1.083       .  S
C596        H601   1.083       .  S
C597        C598   1.403       .  A
C598        H602   1.083       .  S
C603        C608   1.398       .  A
C603        H609   1.083       .  S
C604        C605   1.408       .  A
C605        C606   1.401       .  A
C605        H610   1.083       .  S
C606        C607   1.403       .  A
C606        H611   1.083       .  S
C608        H612   1.083       .  S
C613        C618   1.398       .  A
C613        H619   1.083       .  S
C614        C615   1.407   1_455  A
C615        C616   1.401       .  A
C615        H620   1.083       .  S
C616        C617   1.404   1_655  A
C616        H621   1.083       .  S
C618        H622   1.083       .  S
C623        C628   1.399       .  A
C623        H629   1.083       .  S
C624        C625   1.407   1_455  A
C625        C626   1.401       .  A
C625        H630   1.083       .  S
C626        C627   1.404   1_655  A
C626        H631   1.083       .  S
C628        H632   1.083       .  S
C633        C634   1.403       .  A
C633        C638   1.399       .  A
C633        H639   1.083   1_545  S
C634        C635   1.405       .  A
C635        C636   1.402       .  A
C635        H640   1.083       .  S
C636        C637   1.406       .  A
C636        H641   1.083       .  S
C637        C638   1.407       .  A
C638        H642   1.083   1_545  S
C643        C644   1.403       .  A
C643        C648   1.398       .  A
C643        H649   1.083   1_545  S
C644        C645   1.404       .  A
C645        C646   1.397       .  A
C645        H650   1.083       .  S
C646        C647   1.405       .  A
C646        H651   1.083       .  S
C647        C648   1.406       .  A
C648        H652   1.083   1_545  S
C653        C654   1.405       .  A
C653        C658   1.406       .  A
C653        H659   1.083       .  S
C654        C655   1.399   1_545  A
C655        C656   1.397       .  A
C655        H660   1.083       .  S
C656        C657   1.412       .  A
C656        H661   1.082       .  S
C657        C658   1.408   1_565  A
C658        H662   1.081       .  S
C663        C664   1.400   1_565  A
C663        C668   1.400       .  A
C663        H669   1.083       .  S
C664        C665   1.404       .  A
C665        C666   1.407       .  A
C665        H670   1.083       .  S
C666        C667   1.412   1_545  A
C666        H671   1.080       .  S
C667        C668   1.413       .  A
C668        H672   1.080       .  S
C673        C674   1.403       .  A
C673        C678   1.397       .  A
C673        H679   1.082   1_545  S
C674        C675   1.405       .  A
C675        C676   1.403       .  A
C675        H680   1.083       .  S
C676        C677   1.407       .  A
C676        H681   1.083       .  S
C677        C678   1.406       .  A
C678        H682   1.083   1_545  S
C683        C684   1.402       .  A
C683        C688   1.396       .  A
C683        H689   1.083   1_545  S
C684        C685   1.404       .  A
C685        C686   1.399       .  A
C685        H690   1.083       .  S
C686        C687   1.406       .  A
C686        H691   1.083       .  S
C687        C688   1.406       .  A
C688        H692   1.083   1_545  S
C693        C694   1.406       .  A
C693        C698   1.400       .  A
C693        H699   1.083       .  S
C695        C696   1.403       .  A
C695        H700   1.082       .  S
C696        H701   1.083       .  S
C697        C698   1.406       .  A
C698        H702   1.082       .  S
C703        C704   1.414       .  A
C703        C708   1.399       .  A
C703        H709   1.074       .  S
C705        C706   1.402       .  A
C705        H710   1.083       .  S
C706        H711   1.082       .  S
C707        C708   1.402       .  A
C708        H712   1.084       .  S
C713        C714   1.408   1_545  A
C713        C718   1.406       .  A
C713        H719   1.082       .  S
C714        C715   1.411       .  A
C715        C716   1.398       .  A
C715        H720   1.082       .  S
C716        C717   1.400   1_565  A
C716        H721   1.083       .  S
C717        C718   1.405       .  A
C718        H722   1.083       .  S
C723        C724   1.412   1_545  A
C723        C728   1.406       .  A
C723        H729   1.080       .  S
C724        C969   1.415       .  A
C725        C968   1.415       .  A
C725        C726   1.401       .  A
C725        H730   1.078       .  S
C726        C971   1.400       .  A
C726        H731   1.084       .  S
C727        C970   1.400   1_545  A
C727        C728   1.405       .  A
C728        H732   1.082       .  S
C733        C739   1.535   1_455  S
C733        C737   1.535       .  S
C734        H741   1.078       .  S
C735        C958   1.500       .  S
C736        C740   1.556   1_455  S
C736        H742   1.106       .  S
C737        H743   1.086       .  S
C738        C938   1.489       .  S
C739        H744   1.083       .  S
C740        C968   1.514       .  S
C745        C746   1.416       .  A
C745        C750   1.404       .  A
C745        C928   1.481       .  S
C746        C747   1.411       .  A
C746        C971   1.494       .  S
C747        C748   1.411       .  A
C747        H752   1.084       .  S
C748        C749   1.413       .  A
C748        C961   1.485       .  S
C749        C750   1.401       .  A
C749        C918   1.485       .  S
C750        H751   1.085       .  S
C753        C754   1.415       .  A
C753        C758   1.411       .  A
C753        C908   1.491       .  S
C754        C755   1.404       .  A
C754        C888   1.481       .  S
C755        C756   1.401       .  A
C755        H760   1.085       .  S
C756        C757   1.413       .  A
C756        C878   1.485       .  S
C757        C758   1.412       .  A
C757        C898   1.485       .  S
C758        H759   1.084       .  S
O762        V769   1.905       .  S
O762        C772   1.266   1_655  A
O763        C773   1.265   1_655  A
O764        V769   1.901   1_556  S
O765        V770   1.905       .  S
O765        C774   1.266       .  A
O767        V770   1.901   1_554  S
O768        C771   1.265       .  A
C771        C838   1.482       .  S
C772        C858   1.482       .  S
C773        C868   1.482       .  S
C774        C848   1.483       .  S
C775        C776   1.418       .  A
C775        C780   1.401       .  A
C775        C871   1.485       .  S
C776        C777   1.411   1_455  A
C776        C828   1.494       .  S
C777        C778   1.413   1_655  A
C777        H782   1.084       .  S
C778        C779   1.417       .  A
C778        C818   1.494   1_455  S
C779        C780   1.402       .  A
C779        C861   1.485       .  S
C780        H781   1.085       .  S
C783        C784   1.540       .  S
C783        C787   1.535       .  S
C783        C821   1.540       .  S
C784        H791   1.077       .  S
C785        C786   1.549       .  S
C785        C901   1.502       .  S
C786        C788   1.543       .  S
C786        H792   1.106       .  S
C788        C831   1.482       .  S
C789        H794   1.083       .  S
C790        C911   1.510       .  S
C795        C796   1.414       .  A
C795        C800   1.412       .  A
C795        C951   1.492       .  S
C796        C797   1.400       .  A
C796        C851   1.481       .  S
C797        C798   1.402       .  A
C797        H802   1.085       .  S
C798        C799   1.419       .  A
C798        C841   1.484       .  S
C799        C800   1.413       .  A
C799        C941   1.496       .  S
C800        H801   1.084       .  S
O804        V811   1.898       .  S
O806        V811   1.896       .  S
O807        V812   1.902       .  S
O807        C816   1.265       .  A
O808        C815   1.265       .  A
O809        V812   1.909       .  S
O809        C814   1.267       .  A
O810        C813   1.267       .  A
C813        C921   1.485       .  S
C814        C881   1.484       .  S
C815        C891   1.478       .  S
C816        C931   1.479       .  S
C817        C822   1.402       .  A
C817        H823   1.082       .  S
C818        C819   1.401       .  A
C819        C820   1.400       .  A
C819        H824   1.084       .  S
C820        C821   1.415       .  A
C820        H825   1.073       .  S
C822        H826   1.083       .  S
C827        C828   1.408   1_655  A
C827        C832   1.404       .  A
C827        H833   1.083       .  S
C829        C830   1.398       .  A
C829        H834   1.082       .  S
C830        H835   1.083       .  S
C831        C832   1.403       .  A
C832        H836   1.082       .  S
C837        C838   1.404       .  A
C837        C842   1.396       .  A
C837        H843   1.083       .  S
C839        C840   1.405       .  A
C839        H844   1.083       .  S
C840        H845   1.083       .  S
C841        C842   1.403       .  A
C842        H846   1.083       .  S
C847        C852   1.398       .  A
C847        H853   1.083       .  S
C848        C849   1.408       .  A
C849        C850   1.401       .  A
C849        H854   1.083       .  S
C850        C851   1.403       .  A
C850        H855   1.083       .  S
C852        H856   1.083       .  S
C857        C862   1.398       .  A
C857        H863   1.083       .  S
C858        C859   1.407   1_455  A
C859        C860   1.401       .  A
C859        H864   1.083       .  S
C860        C861   1.404   1_655  A
C860        H865   1.083       .  S
C862        H866   1.083       .  S
C867        C872   1.399       .  A
C867        H873   1.083       .  S
C868        C869   1.407   1_455  A
C869        C870   1.401       .  A
C869        H874   1.083       .  S
C870        C871   1.404   1_655  A
C870        H875   1.083       .  S
C872        H876   1.083       .  S
C877        C878   1.403       .  A
C877        C882   1.399       .  A
C877        H883   1.083       .  S
C878        C879   1.405       .  A
C879        C880   1.402       .  A
C879        H884   1.083       .  S
C880        C881   1.406       .  A
C880        H885   1.083       .  S
C881        C882   1.407       .  A
C882        H886   1.083       .  S
C887        C888   1.403       .  A
C887        C892   1.398       .  A
C887        H893   1.083       .  S
C888        C889   1.404       .  A
C889        C890   1.397       .  A
C889        H894   1.083       .  S
C890        C891   1.405       .  A
C890        H895   1.083       .  S
C891        C892   1.406       .  A
C892        H896   1.083       .  S
C897        C898   1.405       .  A
C897        C902   1.406       .  A
C897        H903   1.083       .  S
C898        C899   1.399       .  A
C899        C900   1.397       .  A
C899        H904   1.083       .  S
C900        C901   1.412       .  A
C900        H905   1.082       .  S
C901        C902   1.408       .  A
C902        H906   1.081       .  S
C907        C908   1.400       .  A
C907        C912   1.400       .  A
C907        H913   1.083       .  S
C908        C909   1.404       .  A
C909        C910   1.407       .  A
C909        H914   1.083       .  S
C910        C911   1.412       .  A
C910        H915   1.080       .  S
C911        C912   1.413       .  A
C912        H916   1.080       .  S
C917        C918   1.403       .  A
C917        C922   1.397       .  A
C917        H923   1.082       .  S
C918        C919   1.405       .  A
C919        C920   1.403       .  A
C919        H924   1.084       .  S
C920        C921   1.407       .  A
C920        H925   1.082       .  S
C921        C922   1.406       .  A
C922        H926   1.083       .  S
C927        C928   1.402       .  A
C927        C932   1.396       .  A
C927        H933   1.083       .  S
C928        C929   1.404       .  A
C929        C930   1.399       .  A
C929        H934   1.083       .  S
C930        C931   1.406       .  A
C930        H935   1.083       .  S
C931        C932   1.406       .  A
C932        H936   1.083       .  S
C937        C938   1.406       .  A
C937        C942   1.400       .  A
C937        H943   1.083       .  S
C939        C940   1.403       .  A
C939        H944   1.082       .  S
C940        H945   1.083       .  S
C941        C942   1.406       .  A
C942        H946   1.082       .  S
C947        C948   1.414       .  A
C947        C952   1.399       .  A
C947        H953   1.074       .  S
C949        C950   1.402       .  A
C949        H954   1.083       .  S
C950        H955   1.082       .  S
C951        C952   1.402       .  A
C952        H956   1.084       .  S
C957        C958   1.408       .  A
C957        C962   1.406       .  A
C957        H963   1.082       .  S
C958        C959   1.411       .  A
C959        C960   1.398       .  A
C959        H964   1.082       .  S
C960        C961   1.400       .  A
C960        H965   1.083       .  S
C961        C962   1.405       .  A
C962        H966   1.083       .  S
C967        C968   1.412       .  A
C967        C972   1.406       .  A
C967        H973   1.080       .  S
C969        C970   1.401       .  A
C969        H974   1.078       .  S
C970        H975   1.084       .  S
C971        C972   1.405       .  A
C972        H976   1.082       .  S
