geometry optimzed in LAMMPS
_audit_creation_date              2020-11-30 
_audit_creation_method            'lammps2cif' 
_symmetry_space_group_name_H-M    'P1' 
_symmetry_Int_Tables_number       1 
_symmetry_cell_setting            triclinic 
loop_ 
_symmetry_equiv_pos_as_xyz 
  x,y,z 
_cell_length_a                    44.23089449284636 
_cell_length_b                    44.30286337151506 
_cell_length_c                    44.23785914422097 
_cell_angle_alpha                 89.98517101887742 
_cell_angle_beta                  89.7771707248661 
_cell_angle_gamma                 90.1402450000239 
loop_ 
_atom_site_label 
_atom_site_type_symbol 
_atom_site_fract_x 
_atom_site_fract_y 
_atom_site_fract_z 
_atom_site_charge 
O1          O  0.02565256  0.49926805  0.29487262    -0.72950
O2          O  0.02529950  0.00032665  0.20461104    -0.73930
O3          O  0.02473218  0.04513105  0.25016012    -0.62550
O4          O  0.02574291  0.45444512  0.24889573    -0.70960
O5          O  0.47555884  0.45394431  0.25082704    -0.70510
O6          O  0.47476438  0.04430430  0.24990705    -0.61770
O7          O  0.47529220  0.99881955  0.20469461    -0.74280
O8          O  0.47567826  0.49947956  0.29571085    -0.73060
Cu9        Cu  0.02707562  0.99981337  0.24964951     1.04560
Cu10       Cu  0.47356803  0.49911592  0.25028699     1.04330
C11         C  0.00089394  0.49937426  0.30978561     0.93250
C12         C  0.00039158  0.99950160  0.19020147     0.92390
C13         C  0.99950402  0.05919185  0.24998484     0.84530
C14         C  0.00073111  0.43996448  0.24974843     0.90800
O15         O  0.02564135  0.24957328  0.20462295    -0.72950
O16         O  0.02543149  0.25206026  0.29537416    -0.73930
O17         O  0.02591943  0.20565247  0.25102326    -0.62550
O18         O  0.02541140  0.29594144  0.24873814    -0.70960
O19         O  0.47527089  0.29553525  0.25199240    -0.70510
O20         O  0.47598521  0.20492006  0.24892333    -0.61770
O21         O  0.47531901  0.24862461  0.29546931    -0.74280
O22         O  0.47545795  0.25187739  0.20498333    -0.73060
Cu23       Cu  0.02735980  0.25081806  0.24994324     1.04560
Cu24       Cu  0.47373446  0.25022543  0.25031173     1.04330
C25         C  0.00050609  0.25080373  0.19058488     0.93250
C26         C  0.00032746  0.25025036  0.30966960     0.92390
C27         C  0.00116646  0.19081413  0.24999115     0.84530
C28         C  0.00029562  0.30995606  0.25057686     0.90800
O29         O  0.27556808  0.99832398  0.29572181    -0.72950
O30         O  0.27597787  0.00139457  0.20507975    -0.73930
O31         O  0.27536279  0.04512408  0.25209019    -0.62550
O32         O  0.27613712  0.45468055  0.24900990    -0.70960
O33         O  0.22609642  0.45408229  0.25070129    -0.70510
O34         O  0.22522703  0.04469735  0.24966039    -0.61770
O35         O  0.22578566  0.99877877  0.20501603    -0.74200
O36         O  0.22542834  0.99994390  0.29564553    -0.73060
Cu37       Cu  0.27751748  0.99991466  0.25046555     1.04560
Cu38       Cu  0.22387155  0.99936393  0.25027532     1.04330
C39         C  0.25042031  0.99884919  0.30999938     0.93250
C40         C  0.25094186  0.00013398  0.19084974     0.92390
C41         C  0.25019715  0.05917614  0.25112194     0.84530
C42         C  0.25126249  0.43997350  0.24954840     0.90800
O43         O  0.27561125  0.24974525  0.20392402    -0.72950
O44         O  0.27449135  0.24949028  0.29439094    -0.73930
O45         O  0.27508141  0.20392607  0.24934769    -0.62550
O46         O  0.27467455  0.29466356  0.24929818    -0.70960
O47         O  0.22460356  0.29407865  0.24909203    -0.70510
O48         O  0.22489423  0.20362325  0.24844233    -0.61770
O49         O  0.22440825  0.24871820  0.29439154    -0.74280
O50         O  0.22538354  0.24883586  0.20344291    -0.73060
Cu51       Cu  0.27670429  0.24940546  0.24923510     1.04560
Cu52       Cu  0.22306526  0.24878725  0.24883286     1.04330
C53         C  0.25070105  0.24946704  0.18945224     0.93250
C54         C  0.24942312  0.24957215  0.30879132     0.92390
C55         C  0.25001524  0.18949920  0.24875042     0.84530
C56         C  0.24949300  0.30876933  0.24943758     0.90800
O57         O  0.49825146  0.47499487  0.45485890    -0.72950
O58         O  0.50014241  0.47525866  0.04538631    -0.73930
O59         O  0.45381149  0.47506645  0.00135092    -0.62550
O60         O  0.04452055  0.47537437  0.49901938    -0.70960
O61         O  0.04420941  0.02543364  0.50117616    -0.70510
O62         O  0.45362094  0.02510735  0.99911318    -0.61770
O63         O  0.49757545  0.02536812  0.04535143    -0.74280
O64         O  0.49993054  0.02515317  0.45471070    -0.73060
Cu65       Cu  0.49917454  0.47340674  0.00013769     1.04560
Cu66       Cu  0.49885412  0.02703214  0.50005355     1.04330
C67         C  0.49907372  0.00003063  0.44059932     0.93250
C68         C  0.49874769  0.00031360  0.05955494     0.92390
C69         C  0.43939368  0.00001907  0.00049951     0.84530
C70         C  0.05867737  0.00051161  0.50032763     0.90800
O71         O  0.00017078  0.22655777  0.45419321    -0.72950
O72         O  0.00015017  0.22479252  0.04483952    -0.73930
O73         O  0.45489208  0.22462188  0.99947434    -0.62550
O74         O  0.04554383  0.22666596  0.49944348    -0.70960
O75         O  0.04480336  0.27663570  0.50030876    -0.70510
O76         O  0.45409523  0.27476563  0.50081943    -0.61770
O77         O  0.99947906  0.27473830  0.04588059    -0.74280
O78         O  0.99953441  0.27659143  0.45512581    -0.73060
Cu79       Cu  0.00022395  0.22392464  0.99946098     1.04560
Cu80       Cu  0.99942495  0.27743024  0.50056376     1.04330
C81         C  0.99998903  0.25184606  0.44029016     0.93250
C82         C  0.99995271  0.24945089  0.05980603     0.92390
C83         C  0.44029809  0.24942486  0.50016960     0.84530
C84         C  0.05960242  0.25191787  0.49977766     0.90800
O85         O  0.25016587  0.47512115  0.45515053    -0.72950
O86         O  0.24846309  0.47649266  0.04595374    -0.73930
O87         O  0.20383711  0.47550159  0.99961487    -0.62550
O88         O  0.29445817  0.47594684  0.50125343    -0.70960
O89         O  0.29417138  0.02594501  0.49853981    -0.70510
O90         O  0.20348759  0.02557637  0.00101880    -0.61770
O91         O  0.24982761  0.02638367  0.04508200    -0.74280
O92         O  0.24765307  0.02516368  0.45457325    -0.73060
Cu93       Cu  0.24920763  0.47400762  0.00054559     1.04560
Cu94       Cu  0.24879182  0.02750600  0.49979803     1.04330
C95         C  0.24873863  0.99997749  0.44057520     0.93250
C96         C  0.24938162  0.00170975  0.06000780     0.92390
C97         C  0.18935377  0.00042049  0.00008331     0.84530
C98         C  0.30864918  0.00104134  0.49966786     0.90800
O99         O  0.24847563  0.22566786  0.45322124    -0.72950
O100        O  0.25184056  0.22382465  0.04381298    -0.73930
O101        O  0.20523182  0.22495819  0.00022195    -0.62550
O102        O  0.29579792  0.22433734  0.49669586    -0.70960
O103        O  0.29645668  0.27443687  0.49922397    -0.70510
O104        O  0.20560225  0.27494229  0.50011401    -0.61770
O105        O  0.25146371  0.27382733  0.04491384    -0.74280
O106        O  0.25079512  0.27576144  0.45419226    -0.73060
Cu107      Cu  0.25037885  0.22296235  0.99844183     1.04560
Cu108      Cu  0.25110616  0.27650887  0.49962038     1.04330
C109        C  0.24904727  0.25101916  0.43948250     0.93250
C110        C  0.25166626  0.24850494  0.05876137     0.92390
C111        C  0.19099225  0.24998449  0.00060724     0.84530
C112        C  0.31034555  0.24924318  0.49779902     0.90800
C113        C  0.40712149  0.24883817  0.50001939    -0.00160
C114        C  0.39212796  0.24448983  0.47251862    -0.12040
C115        C  0.36049420  0.24436109  0.47134232     0.02070
C116        C  0.34356673  0.24890600  0.49800784    -0.00250
C117        C  0.35859542  0.25302082  0.02556692    -0.11980
C118        C  0.39023881  0.25275622  0.02679006     0.01960
H119        H  0.40517575  0.24133176  0.45194441     0.14940
H120        H  0.34557260  0.25611009  0.04616461     0.14940
C121        C  0.40494164  0.25570253  0.05574030     0.36590
C122        C  0.34597934  0.23976623  0.44254831     0.36500
N123        N  0.41676941  0.25778839  0.07893972    -0.43750
N124        N  0.33464572  0.23591059  0.41933859    -0.43750
C125        C  0.15737136  0.25020094  0.50114194    -0.00160
C126        C  0.14218379  0.27609726  0.49100332    -0.12040
C127        C  0.11054924  0.27734158  0.49030434     0.02070
C128        C  0.09322560  0.25219700  0.49997192    -0.00250
C129        C  0.10842453  0.22638380  0.01028606    -0.11980
C130        C  0.14002701  0.22518346  0.01111590     0.01960
H131        H  0.15507745  0.29542283  0.48309361     0.14940
H132        H  0.09554577  0.20704746  0.01820234     0.14940
C133        C  0.15372664  0.19821137  0.02318534     0.36590
C134        C  0.09679282  0.30450246  0.47876803     0.36500
N135        N  0.16447640  0.17650292  0.03289610    -0.43750
N136        N  0.08603510  0.32643094  0.46957882    -0.43750
C137        C  0.40596411  0.00001700  0.00079278    -0.00160
C138        C  0.39065902  0.02154116  0.48333478    -0.12040
C139        C  0.35904017  0.02209024  0.48231331     0.02070
C140        C  0.34209301  0.00111639  0.49950168    -0.00250
C141        C  0.35740120  0.47967681  0.01708046    -0.11980
C142        C  0.38903059  0.47903800  0.01798519     0.01960
H143        H  0.40347295  0.03756894  0.46984081     0.14940
H144        H  0.34458919  0.46370321  0.03064025     0.14940
C145        C  0.40343127  0.45764176  0.03789486     0.36590
C146        C  0.34468265  0.04335034  0.46223306     0.36500
N147        N  0.41497383  0.44064189  0.05399445    -0.43750
N148        N  0.33319865  0.06024310  0.44597996    -0.43750
C149        C  0.15595384  0.00022313  0.99971627    -0.00160
C150        C  0.14026791  0.02017846  0.01872861    -0.12040
C151        C  0.10861411  0.02043334  0.01952045     0.02070
C152        C  0.09209250  0.00070266  0.50067453    -0.00250
C153        C  0.10778672  0.48077001  0.48162968    -0.11980
C154        C  0.13944599  0.48050594  0.48085468     0.01960
H155        H  0.15280150  0.03517251  0.03350468     0.14940
H156        H  0.09525983  0.46579388  0.46683037     0.14940
C157        C  0.15439131  0.46094570  0.45940488     0.36590
C158        C  0.09370295  0.03999995  0.04098706     0.36500
N159        N  0.16639316  0.44544751  0.44208031    -0.43750
N160        N  0.08174091  0.05550608  0.05833170    -0.43750
C161        C  0.25119084  0.24957718  0.15619868    -0.00160
C162        C  0.23856797  0.22507797  0.14076191    -0.12040
C163        C  0.23894343  0.22386111  0.10915170     0.02070
C164        C  0.25162686  0.24801515  0.09232992    -0.00250
C165        C  0.26402255  0.27272663  0.10801074    -0.11980
C166        C  0.26415890  0.27353537  0.13966799     0.01960
H167        H  0.22867166  0.20657733  0.15353897     0.14940
H168        H  0.27385008  0.29145132  0.09550617     0.14940
C169        C  0.27682943  0.29956745  0.15470479     0.36590
C170        C  0.22553640  0.19782187  0.09482736     0.36500
N171        N  0.28690618  0.32045641  0.16675802    -0.43750
N172        N  0.21489716  0.17677545  0.08356445    -0.43750
C173        C  0.24935546  0.25078391  0.34235436    -0.00160
C174        C  0.22466541  0.23849873  0.35833917    -0.12040
C175        C  0.22400132  0.23859312  0.39002333     0.02070
C176        C  0.24807116  0.25164263  0.40623338    -0.00250
C177        C  0.27208266  0.26500885  0.39046538    -0.11980
C178        C  0.27325180  0.26426902  0.35885940     0.01960
H179        H  0.20600331  0.22840958  0.34609654     0.14940
H180        H  0.29031587  0.27557315  0.40295252     0.14940
C181        C  0.29910225  0.27795157  0.34419163     0.36590
C182        C  0.19793037  0.22621196  0.40545043     0.36500
N183        N  0.31994244  0.28879526  0.33255302    -0.43750
N184        N  0.17698512  0.21651888  0.41789277    -0.43750
C185        C  0.24997815  0.00206738  0.09373851    -0.00160
C186        C  0.24578037  0.47466104  0.10942854    -0.12040
C187        C  0.24616043  0.47360887  0.14106185     0.02070
C188        C  0.25099246  0.00022958  0.15766185    -0.00250
C189        C  0.25543857  0.02753898  0.14242698    -0.11980
C190        C  0.25485801  0.02881353  0.11079083     0.01960
H191        H  0.24207640  0.45387838  0.09703299     0.14940
H192        H  0.25910794  0.04802771  0.15536356     0.14940
C193        C  0.25950259  0.05795215  0.09685738     0.36590
C194        C  0.24202948  0.44491265  0.15607127     0.36500
N195        N  0.26318224  0.08140073  0.08588011    -0.43750
N196        N  0.23881376  0.42194644  0.16815359    -0.43750
C197        C  0.24856212  0.99959256  0.40722038    -0.00160
C198        C  0.26904531  0.48086006  0.39190465    -0.12040
C199        C  0.27021116  0.48038798  0.36026560     0.02070
C200        C  0.25013729  0.99850987  0.34341191    -0.00250
C201        C  0.22917430  0.01670472  0.35877914    -0.11980
C202        C  0.22841301  0.01759993  0.39040586     0.01960
H203        H  0.28447896  0.46685449  0.40471862     0.14940
H204        H  0.21356963  0.03057125  0.34602462     0.14940
C205        C  0.20606783  0.03636799  0.40504025     0.36590
C206        C  0.29151570  0.46038898  0.34572474     0.36500
N207        N  0.18813662  0.05134846  0.41679517    -0.43750
N208        N  0.30856937  0.44434392  0.33407744    -0.43750
C209        C  0.24939799  0.34233042  0.24972282    -0.00160
C210        C  0.27511840  0.35778431  0.23912903    -0.12040
C211        C  0.27629535  0.38937058  0.23860757     0.02070
C212        C  0.25134900  0.40639401  0.24916336    -0.00250
C213        C  0.22563606  0.39092363  0.25978174    -0.11980
C214        C  0.22444614  0.35933747  0.26025678     0.01960
H215        H  0.29436377  0.34513032  0.23073734     0.14940
H216        H  0.20640255  0.40355360  0.26823811     0.14940
C217        C  0.19767227  0.34524023  0.27270277     0.36590
C218        C  0.30309049  0.40342767  0.22617368     0.36500
N219        N  0.17619167  0.33406169  0.28274594    -0.43750
N220        N  0.32459329  0.41457191  0.21614196    -0.43750
C221        C  0.25000292  0.09249021  0.25123151    -0.00160
C222        C  0.23182600  0.10770566  0.23029369    -0.12040
C223        C  0.23167187  0.13928392  0.22893793     0.02070
C224        C  0.25000989  0.15616799  0.24883502    -0.00250
C225        C  0.26808104  0.14093927  0.26988355    -0.11980
C226        C  0.26793046  0.10935211  0.27148038     0.01960
H227        H  0.21810277  0.09485252  0.21458543     0.14940
H228        H  0.28169696  0.15379027  0.28568051     0.14940
C229        C  0.28483645  0.09483712  0.29524870     0.36590
C230        C  0.21335190  0.15369849  0.20619636     0.36500
N231        N  0.29804274  0.08316129  0.31450429    -0.43750
N232        N  0.19860545  0.16504360  0.18789538    -0.43750
C233        C  0.00015534  0.24902554  0.09346158    -0.00160
C234        C  0.49105890  0.27516127  0.10914212    -0.12040
C235        C  0.49091362  0.27611808  0.14077726     0.02070
C236        C  0.00037540  0.25076810  0.15736179    -0.00250
C237        C  0.00973600  0.22477024  0.14204373    -0.11980
C238        C  0.00945973  0.22350544  0.11040288     0.01960
H239        H  0.48381481  0.29494117  0.09670050     0.14940
H240        H  0.01699450  0.20524553  0.15491190     0.14940
C241        C  0.01931627  0.19583694  0.09624904     0.36590
C242        C  0.48176362  0.30360887  0.15575524     0.36500
N243        N  0.02713512  0.17355330  0.08506345    -0.43750
N244        N  0.47451178  0.32565671  0.16775755    -0.43750
C245        C  0.00014565  0.25030678  0.34294733    -0.00160
C246        C  0.01486660  0.27377446  0.35821449    -0.12040
C247        C  0.01462019  0.27516457  0.38984029     0.02070
C248        C  0.00009877  0.25218158  0.40677563    -0.00250
C249        C  0.48563913  0.22851285  0.39131214    -0.11980
C250        C  0.48522939  0.22761670  0.35968072     0.01960
H251        H  0.02619519  0.29135011  0.34533654     0.14940
H252        H  0.47433647  0.21077685  0.40397261     0.14940
C253        C  0.47018005  0.20271885  0.34490293     0.36590
C254        C  0.03000002  0.30010811  0.40411179     0.36500
N255        N  0.45815969  0.18278294  0.33301205    -0.43750
N256        N  0.04222833  0.32031032  0.41530104    -0.43750
C257        C  0.49879698  0.00026788  0.09271647    -0.00160
C258        C  0.02542467  0.49250714  0.10770357    -0.12040
C259        C  0.02671376  0.49237404  0.13929881     0.02070
C260        C  0.50054524  0.99953490  0.15655243    -0.00250
C261        C  0.47377449  0.00705642  0.14117789    -0.11980
C262        C  0.47282013  0.00771485  0.10954096     0.01960
H263        H  0.04542186  0.48684609  0.09460025     0.14940
H264        H  0.45354116  0.01274284  0.15384904     0.14940
C265        C  0.44483693  0.01551303  0.09476739     0.36590
C266        C  0.05522375  0.48453508  0.15300479     0.36500
N267        N  0.42244079  0.02174072  0.08287672    -0.43750
N268        N  0.07818871  0.47834417  0.16379303    -0.43750
C269        C  0.49924791  0.99989272  0.40743511    -0.00160
C270        C  0.02701095  0.50045320  0.39225830    -0.12040
C271        C  0.02833615  0.50013779  0.36062603     0.02070
C272        C  0.50119911  0.49943364  0.34351652    -0.00250
C273        C  0.47338138  0.99883814  0.35916431    -0.11980
C274        C  0.47225725  0.99897588  0.39079365     0.01960
H275        H  0.04778107  0.50102523  0.40523969     0.14940
H276        H  0.45230655  0.99820987  0.34674092     0.14940
C277        C  0.44316641  0.99816515  0.40571221     0.36590
C278        C  0.05796710  0.50049018  0.34679373     0.36500
N279        N  0.41981664  0.99745207  0.41758138    -0.43750
N280        N  0.08180792  0.50072486  0.33591235    -0.43750
C281        C  0.00029188  0.34316867  0.25085024    -0.00160
C282        C  0.01550961  0.35864463  0.22768249    -0.12040
C283        C  0.01568474  0.39021997  0.22678436     0.02070
C284        C  0.00081624  0.40673280  0.24964778    -0.00250
C285        C  0.48564396  0.39125210  0.27287738    -0.11980
C286        C  0.48544920  0.35964819  0.27375907     0.01960
H287        H  0.02672657  0.34600139  0.20989940     0.14940
H288        H  0.47443404  0.40389883  0.29065935     0.14940
C289        C  0.47133182  0.34464267  0.29916133     0.36590
C290        C  0.02979786  0.40508902  0.20133541     0.36500
N291        N  0.46030976  0.33255156  0.31962986    -0.43750
N292        N  0.04085484  0.41685514  0.18071117    -0.43750
C293        C  0.99922392  0.09288065  0.24992127    -0.00160
C294        C  0.02691624  0.10836361  0.25208210    -0.12040
C295        C  0.02831131  0.13993914  0.25215734     0.02070
C296        C  0.00140068  0.15712365  0.25002298    -0.00250
C297        C  0.47370067  0.14164195  0.24785697    -0.11980
C298        C  0.47231128  0.11005672  0.24774283     0.01960
H299        H  0.04783411  0.09576599  0.25381102     0.14940
H300        H  0.45278318  0.15424282  0.24614643     0.14940
C301        C  0.44278931  0.09630448  0.24511843     0.36590
C302        C  0.05786481  0.15366287  0.25456444     0.36500
N303        N  0.41904940  0.08547666  0.24299820    -0.43750
N304        N  0.08163162  0.16446800  0.25649390    -0.43750
O305        O  0.02565259  0.49926806  0.79487262    -0.72950
O306        O  0.02529952  0.00032666  0.70461104    -0.73930
O307        O  0.02473220  0.04513106  0.75016013    -0.62550
O308        O  0.02574294  0.45444513  0.74889573    -0.70960
O309        O  0.47555883  0.45394432  0.75082703    -0.70510
O310        O  0.47476437  0.04430431  0.74990706    -0.61770
O311        O  0.47529219  0.99881956  0.70469460    -0.74280
O312        O  0.47567824  0.49947957  0.79571085    -0.73060
Cu313      Cu  0.02707564  0.99981338  0.74964951     1.04560
Cu314      Cu  0.47356801  0.49911593  0.75028699     1.04330
C315        C  0.00089397  0.49937427  0.80978561     0.93250
C316        C  0.00039160  0.99950161  0.69020147     0.92390
C317        C  0.99950404  0.05919186  0.74998484     0.84530
C318        C  0.00073113  0.43996449  0.74974843     0.90800
O319        O  0.02564135  0.24957328  0.70462295    -0.72950
O320        O  0.02543151  0.25206028  0.79537416    -0.73930
O321        O  0.02591945  0.20565248  0.75102326    -0.62550
O322        O  0.02541141  0.29594145  0.74873813    -0.70960
O323        O  0.47527087  0.29553526  0.75199239    -0.70510
O324        O  0.47598519  0.20492007  0.74892334    -0.61770
O325        O  0.47531899  0.24862463  0.79546931    -0.74280
O326        O  0.47545794  0.25187739  0.70498333    -0.73060
Cu327      Cu  0.02735981  0.25081807  0.74994324     1.04560
Cu328      Cu  0.47373445  0.25022544  0.75031173     1.04330
C329        C  0.00050609  0.25080374  0.69058488     0.93250
C330        C  0.00032748  0.25025037  0.80966960     0.92390
C331        C  0.00116647  0.19081414  0.74999116     0.84530
C332        C  0.00029563  0.30995607  0.75057686     0.90800
O333        O  0.27556809  0.99832399  0.79572181    -0.72950
O334        O  0.27597787  0.00139459  0.70507975    -0.73930
O335        O  0.27536280  0.04512410  0.75209019    -0.62550
O336        O  0.27613713  0.45468056  0.74900990    -0.70960
O337        O  0.22609643  0.45408231  0.75070129    -0.70510
O338        O  0.22522704  0.04469736  0.74966040    -0.61770
O339        O  0.22578567  0.99877878  0.70501603    -0.74200
O340        O  0.22542834  0.99994391  0.79564553    -0.73060
Cu341      Cu  0.27751749  0.99991468  0.75046555     1.04560
Cu342      Cu  0.22387156  0.99936395  0.75027532     1.04330
C343        C  0.25042031  0.99884920  0.80999938     0.93250
C344        C  0.25094187  0.00013399  0.69084974     0.92390
C345        C  0.25019715  0.05917615  0.75112195     0.84530
C346        C  0.25126250  0.43997352  0.74954839     0.90800
O347        O  0.27561126  0.24974526  0.70392401    -0.72950
O348        O  0.27449137  0.24949030  0.79439093    -0.73930
O349        O  0.27508143  0.20392608  0.74934769    -0.62550
O350        O  0.27467456  0.29466358  0.74929817    -0.70960
O351        O  0.22460358  0.29407866  0.74909203    -0.70510
O352        O  0.22489425  0.20362326  0.74844233    -0.61770
O353        O  0.22440827  0.24871821  0.79439154    -0.74280
O354        O  0.22538355  0.24883587  0.70344291    -0.73060
Cu355      Cu  0.27670431  0.24940547  0.74923509     1.04560
Cu356      Cu  0.22306528  0.24878726  0.74883286     1.04330
C357        C  0.25070106  0.24946705  0.68945224     0.93250
C358        C  0.24942314  0.24957216  0.80879132     0.92390
C359        C  0.25001526  0.18949921  0.74875042     0.84530
C360        C  0.24949301  0.30876934  0.74943757     0.90800
O361        O  0.49825145  0.47499486  0.95485890    -0.72950
O362        O  0.50014242  0.47525867  0.54538631    -0.73930
O363        O  0.45381150  0.47506646  0.50135092    -0.62550
O364        O  0.04452055  0.47537436  0.99901938    -0.70960
O365        O  0.04420941  0.02543363  0.00117617    -0.70510
O366        O  0.45362095  0.02510736  0.49911318    -0.61770
O367        O  0.49757545  0.02536812  0.54535143    -0.74280
O368        O  0.49993054  0.02515316  0.95471070    -0.73060
Cu369      Cu  0.49917455  0.47340675  0.50013769     1.04560
Cu370      Cu  0.49885411  0.02703213  0.00005355     1.04330
C371        C  0.49907371  0.00003063  0.94059932     0.93250
C372        C  0.49874770  0.00031360  0.55955494     0.92390
C373        C  0.43939368  0.00001907  0.50049951     0.84530
C374        C  0.05867736  0.00051160  0.00032764     0.90800
O375        O  0.00017080  0.22655778  0.95419321    -0.72950
O376        O  0.00015015  0.22479252  0.54483952    -0.73930
O377        O  0.45489207  0.22462187  0.49947433    -0.62550
O378        O  0.04554384  0.22666597  0.99944348    -0.70960
O379        O  0.04480337  0.27663571  0.00030876    -0.70510
O380        O  0.45409524  0.27476564  0.00081944    -0.61770
O381        O  0.99947904  0.27473830  0.54588059    -0.74280
O382        O  0.99953442  0.27659143  0.95512581    -0.73060
Cu383      Cu  0.00022394  0.22392464  0.49946098     1.04560
Cu384      Cu  0.99942497  0.27743024  0.00056376     1.04330
C385        C  0.99998905  0.25184607  0.94029016     0.93250
C386        C  0.99995270  0.24945090  0.55980603     0.92390
C387        C  0.44029810  0.24942487  0.00016961     0.84530
C388        C  0.05960243  0.25191788  0.99977766     0.90800
O389        O  0.25016587  0.47512114  0.95515052    -0.72950
O390        O  0.24846309  0.47649268  0.54595375    -0.73930
O391        O  0.20383711  0.47550162  0.49961487    -0.62550
O392        O  0.29445817  0.47594683  0.00125342    -0.70960
O393        O  0.29417137  0.02594499  0.99853981    -0.70510
O394        O  0.20348760  0.02557638  0.50101879    -0.61770
O395        O  0.24982762  0.02638369  0.54508199    -0.74280
O396        O  0.24765307  0.02516367  0.95457325    -0.73060
Cu397      Cu  0.24920763  0.47400764  0.50054559     1.04560
Cu398      Cu  0.24879181  0.02750598  0.99979804     1.04330
C399        C  0.24873862  0.99997748  0.94057520     0.93250
C400        C  0.24938162  0.00170977  0.56000780     0.92390
C401        C  0.18935377  0.00042051  0.50008331     0.84530
C402        C  0.30864917  0.00104132  0.99966786     0.90800
O403        O  0.24847565  0.22566788  0.95322124    -0.72950
O404        O  0.25184055  0.22382465  0.54381299    -0.73930
O405        O  0.20523181  0.22495818  0.50022195    -0.62550
O406        O  0.29579793  0.22433735  0.99669586    -0.70960
O407        O  0.29645670  0.27443688  0.99922398    -0.70510
O408        O  0.20560226  0.27494230  0.00011400    -0.61770
O409        O  0.25146371  0.27382732  0.54491384    -0.74280
O410        O  0.25079514  0.27576145  0.95419226    -0.73060
Cu411      Cu  0.25037884  0.22296235  0.49844183     1.04560
Cu412      Cu  0.25110617  0.27650887  0.99962038     1.04330
C413        C  0.24904729  0.25101917  0.93948250     0.93250
C414        C  0.25166625  0.24850493  0.55876136     0.92390
C415        C  0.19099224  0.24998448  0.50060724     0.84530
C416        C  0.31034556  0.24924319  0.99779903     0.90800
C417        C  0.40712150  0.24883817  0.00001939    -0.00160
C418        C  0.39212797  0.24448982  0.97251863    -0.12040
C419        C  0.36049422  0.24436108  0.97134234     0.02070
C420        C  0.34356674  0.24890601  0.99800785    -0.00250
C421        C  0.35859540  0.25302079  0.52556692    -0.11980
C422        C  0.39023879  0.25275619  0.52679005     0.01960
H423        H  0.40517576  0.24133173  0.95194442     0.14940
H424        H  0.34557259  0.25611004  0.54616461     0.14940
C425        C  0.40494163  0.25570248  0.55574030     0.36590
C426        C  0.34597935  0.23976620  0.94254832     0.36500
N427        N  0.41676940  0.25778832  0.57893972    -0.43750
N428        N  0.33464572  0.23591055  0.91933861    -0.43750
C429        C  0.15737137  0.25020095  0.00114193    -0.00160
C430        C  0.14218380  0.27609726  0.99100330    -0.12040
C431        C  0.11054926  0.27734158  0.99030432     0.02070
C432        C  0.09322562  0.25219700  0.99997191    -0.00250
C433        C  0.10842451  0.22638379  0.51028604    -0.11980
C434        C  0.14002700  0.22518344  0.51111589     0.01960
H435        H  0.15507746  0.29542282  0.98309357     0.14940
H436        H  0.09554576  0.20704744  0.51820231     0.14940
C437        C  0.15372662  0.19821134  0.52318530     0.36590
C438        C  0.09679283  0.30450245  0.97876798     0.36500
N439        N  0.16447638  0.17650288  0.53289605    -0.43750
N440        N  0.08603511  0.32643092  0.96957876    -0.43750
C441        C  0.40596411  0.00001701  0.50079277    -0.00160
C442        C  0.39065902  0.02154114  0.98333477    -0.12040
C443        C  0.35904017  0.02209021  0.98231329     0.02070
C444        C  0.34209300  0.00111637  0.99950168    -0.00250
C445        C  0.35740120  0.47967681  0.51708045    -0.11980
C446        C  0.38903059  0.47903800  0.51798519     0.01960
H447        H  0.40347294  0.03756891  0.96984079     0.14940
H448        H  0.34458919  0.46370322  0.53064024     0.14940
C449        C  0.40343127  0.45764176  0.53789485     0.36590
C450        C  0.34468264  0.04335030  0.96223302     0.36500
N451        N  0.41497383  0.44064188  0.55399444    -0.43750
N452        N  0.33319863  0.06024304  0.94597991    -0.43750
C453        C  0.15595384  0.00022314  0.49971626    -0.00160
C454        C  0.14026791  0.02017847  0.51872861    -0.12040
C455        C  0.10861412  0.02043334  0.51952045     0.02070
C456        C  0.09209250  0.00070265  0.00067454    -0.00250
C457        C  0.10778671  0.48076999  0.98162969    -0.11980
C458        C  0.13944598  0.48050592  0.98085469     0.01960
H459        H  0.15280150  0.03517251  0.53350469     0.14940
H460        H  0.09525983  0.46579386  0.96683038     0.14940
C461        C  0.15439130  0.46094568  0.95940490     0.36590
C462        C  0.09370295  0.03999994  0.54098707     0.36500
N463        N  0.16639315  0.44544748  0.94208032    -0.43750
N464        N  0.08174091  0.05550607  0.55833171    -0.43750
C465        C  0.25119085  0.24957718  0.65619867    -0.00160
C466        C  0.23856794  0.22507800  0.64076191    -0.12040
C467        C  0.23894340  0.22386113  0.60915170     0.02070
C468        C  0.25162685  0.24801515  0.59232992    -0.00250
C469        C  0.26402258  0.27272662  0.60801074    -0.11980
C470        C  0.26415893  0.27353536  0.63966798     0.01960
H471        H  0.22867161  0.20657736  0.65353898     0.14940
H472        H  0.27385013  0.29145129  0.59550616     0.14940
C473        C  0.27682950  0.29956743  0.65470478     0.36590
C474        C  0.22553633  0.19782191  0.59482737     0.36500
N475        N  0.28690628  0.32045637  0.66675801    -0.43750
N476        N  0.21489706  0.17677550  0.58356446    -0.43750
C477        C  0.24935548  0.25078392  0.84235436    -0.00160
C478        C  0.22466543  0.23849875  0.85833917    -0.12040
C479        C  0.22400134  0.23859314  0.89002333     0.02070
C480        C  0.24807118  0.25164264  0.90623338    -0.00250
C481        C  0.27208269  0.26500887  0.89046538    -0.11980
C482        C  0.27325182  0.26426904  0.85885940     0.01960
H483        H  0.20600333  0.22840960  0.84609654     0.14940
H484        H  0.29031589  0.27557316  0.90295252     0.14940
C485        C  0.29910227  0.27795158  0.84419163     0.36590
C486        C  0.19793039  0.22621197  0.90545043     0.36500
N487        N  0.31994246  0.28879528  0.83255302    -0.43750
N488        N  0.17698514  0.21651890  0.91789276    -0.43750
C489        C  0.24997815  0.00206740  0.59373851    -0.00160
C490        C  0.24578037  0.47466106  0.60942854    -0.12040
C491        C  0.24616044  0.47360890  0.64106185     0.02070
C492        C  0.25099247  0.00022960  0.65766185    -0.00250
C493        C  0.25543858  0.02753900  0.64242698    -0.11980
C494        C  0.25485801  0.02881355  0.61079083     0.01960
H495        H  0.24207640  0.45387840  0.59703299     0.14940
H496        H  0.25910794  0.04802773  0.65536356     0.14940
C497        C  0.25950258  0.05795217  0.59685738     0.36590
C498        C  0.24202949  0.44491267  0.65607127     0.36500
N499        N  0.26318223  0.08140075  0.58588011    -0.43750
N500        N  0.23881376  0.42194647  0.66815359    -0.43750
C501        C  0.24856212  0.99959255  0.90722038    -0.00160
C502        C  0.26904531  0.48086006  0.89190465    -0.12040
C503        C  0.27021117  0.48038798  0.86026560     0.02070
C504        C  0.25013730  0.99850988  0.84341191    -0.00250
C505        C  0.22917431  0.01670472  0.85877914    -0.11980
C506        C  0.22841301  0.01759993  0.89040586     0.01960
H507        H  0.28447897  0.46685449  0.90471862     0.14940
H508        H  0.21356963  0.03057126  0.84602462     0.14940
C509        C  0.20606783  0.03636798  0.90504026     0.36590
C510        C  0.29151572  0.46038900  0.84572474     0.36500
N511        N  0.18813662  0.05134845  0.91679518    -0.43750
N512        N  0.30856940  0.44434395  0.83407744    -0.43750
C513        C  0.24939800  0.34233044  0.74972281    -0.00160
C514        C  0.27511841  0.35778432  0.73912903    -0.12040
C515        C  0.27629536  0.38937060  0.73860757     0.02070
C516        C  0.25134901  0.40639403  0.74916335    -0.00250
C517        C  0.22563606  0.39092364  0.75978172    -0.11980
C518        C  0.22444614  0.35933748  0.76025676     0.01960
H519        H  0.29436378  0.34513034  0.73073734     0.14940
H520        H  0.20640255  0.40355361  0.76823809     0.14940
C521        C  0.19767228  0.34524024  0.77270274     0.36590
C522        C  0.30309051  0.40342769  0.72617369     0.36500
N523        N  0.17619167  0.33406171  0.78274590    -0.43750
N524        N  0.32459331  0.41457193  0.71614198    -0.43750
C525        C  0.25000293  0.09249022  0.75123152    -0.00160
C526        C  0.23182602  0.10770567  0.73029369    -0.12040
C527        C  0.23167189  0.13928393  0.72893793     0.02070
C528        C  0.25000990  0.15616800  0.74883502    -0.00250
C529        C  0.26808104  0.14093928  0.76988356    -0.11980
C530        C  0.26793046  0.10935212  0.77148039     0.01960
H531        H  0.21810279  0.09485253  0.71458543     0.14940
H532        H  0.28169696  0.15379029  0.78568052     0.14940
C533        C  0.28483644  0.09483713  0.79524873     0.36590
C534        C  0.21335192  0.15369850  0.70619635     0.36500
N535        N  0.29804272  0.08316130  0.81450432    -0.43750
N536        N  0.19860547  0.16504361  0.68789537    -0.43750
C537        C  0.00015533  0.24902554  0.59346158    -0.00160
C538        C  0.49105892  0.27516128  0.60914212    -0.12040
C539        C  0.49091364  0.27611809  0.64077726     0.02070
C540        C  0.00037540  0.25076811  0.65736179    -0.00250
C541        C  0.00973601  0.22477025  0.64204373    -0.11980
C542        C  0.00945973  0.22350544  0.61040288     0.01960
H543        H  0.48381486  0.29494119  0.59670050     0.14940
H544        H  0.01699452  0.20524554  0.65491190     0.14940
C545        C  0.01931628  0.19583695  0.59624904     0.36590
C546        C  0.48176368  0.30360890  0.65575524     0.36500
N547        N  0.02713514  0.17355331  0.58506345    -0.43750
N548        N  0.47451187  0.32565675  0.66775754    -0.43750
C549        C  0.00014567  0.25030679  0.84294733    -0.00160
C550        C  0.01486660  0.27377448  0.85821449    -0.12040
C551        C  0.01462019  0.27516459  0.88984029     0.02070
C552        C  0.00009879  0.25218159  0.90677563    -0.00250
C553        C  0.48563911  0.22851287  0.89131214    -0.11980
C554        C  0.48522937  0.22761672  0.85968072     0.01960
H555        H  0.02619518  0.29135015  0.84533654     0.14940
H556        H  0.47433646  0.21077687  0.90397262     0.14940
C557        C  0.47018002  0.20271888  0.84490294     0.36590
C558        C  0.02999999  0.30010815  0.90411179     0.36500
N559        N  0.45815965  0.18278297  0.83301206    -0.43750
N560        N  0.04222828  0.32031037  0.91530104    -0.43750
C561        C  0.49879699  0.00026789  0.59271647    -0.00160
C562        C  0.02542470  0.49250716  0.60770356    -0.12040
C563        C  0.02671379  0.49237406  0.63929881     0.02070
C564        C  0.50054523  0.99953491  0.65655243    -0.00250
C565        C  0.47377448  0.00705642  0.64117788    -0.11980
C566        C  0.47282012  0.00771485  0.60954096     0.01960
H567        H  0.04542189  0.48684612  0.59460025     0.14940
H568        H  0.45354115  0.01274282  0.65384904     0.14940
C569        C  0.44483692  0.01551300  0.59476739     0.36590
C570        C  0.05522379  0.48453511  0.65300478     0.36500
N571        N  0.42244077  0.02174067  0.58287671    -0.43750
N572        N  0.07818875  0.47834421  0.66379302    -0.43750
C573        C  0.49924790  0.99989272  0.90743511    -0.00160
C574        C  0.02701097  0.50045322  0.89225830    -0.12040
C575        C  0.02833618  0.50013781  0.86062603     0.02070
C576        C  0.50119909  0.49943365  0.84351652    -0.00250
C577        C  0.47338136  0.99883812  0.85916431    -0.11980
C578        C  0.47225724  0.99897586  0.89079365     0.01960
H579        H  0.04778109  0.50102526  0.90523969     0.14940
H580        H  0.45230653  0.99820983  0.84674092     0.14940
C581        C  0.44316639  0.99816510  0.90571221     0.36590
C582        C  0.05796713  0.50049022  0.84679373     0.36500
N583        N  0.41981663  0.99745201  0.91758139    -0.43750
N584        N  0.08180794  0.50072492  0.83591236    -0.43750
C585        C  0.00029190  0.34316868  0.75085023    -0.00160
C586        C  0.01550962  0.35864464  0.72768247    -0.12040
C587        C  0.01568476  0.39021998  0.72678435     0.02070
C588        C  0.00081627  0.40673281  0.74964777    -0.00250
C589        C  0.48564391  0.39125211  0.77287735    -0.11980
C590        C  0.48544914  0.35964820  0.77375904     0.01960
H591        H  0.02672657  0.34600140  0.70989939     0.14940
H592        H  0.47443396  0.40389884  0.79065930     0.14940
C593        C  0.47133172  0.34464268  0.79916128     0.36590
C594        C  0.02979787  0.40508903  0.70133540     0.36500
N595        N  0.46030962  0.33255157  0.81962978    -0.43750
N596        N  0.04085485  0.41685515  0.68071116    -0.43750
C597        C  0.99922394  0.09288066  0.74992128    -0.00160
C598        C  0.02691626  0.10836362  0.75208211    -0.12040
C599        C  0.02831132  0.13993915  0.75215735     0.02070
C600        C  0.00140070  0.15712366  0.75002299    -0.00250
C601        C  0.47370065  0.14164196  0.74785697    -0.11980
C602        C  0.47231126  0.11005673  0.74774284     0.01960
H603        H  0.04783413  0.09576601  0.75381103     0.14940
H604        H  0.45278316  0.15424283  0.74614643     0.14940
C605        C  0.44278929  0.09630448  0.74511843     0.36590
C606        C  0.05786483  0.15366289  0.75456445     0.36500
N607        N  0.41904938  0.08547666  0.74299820    -0.43750
N608        N  0.08163164  0.16446802  0.75649391    -0.43750
O609        O  0.02565257  0.99926805  0.29487262    -0.72950
O610        O  0.02529950  0.50032665  0.20461103    -0.73930
O611        O  0.02473217  0.54513105  0.25016012    -0.62550
O612        O  0.02574292  0.95444512  0.24889573    -0.70960
O613        O  0.47555885  0.95394431  0.25082703    -0.70510
O614        O  0.47476439  0.54430430  0.24990705    -0.61770
O615        O  0.47529220  0.49881955  0.20469461    -0.74280
O616        O  0.47567825  0.99947956  0.29571085    -0.73060
Cu617      Cu  0.02707561  0.49981337  0.24964951     1.04560
Cu618      Cu  0.47356803  0.99911592  0.25028699     1.04330
C619        C  0.00089395  0.99937426  0.30978561     0.93250
C620        C  0.00039157  0.49950160  0.19020147     0.92390
C621        C  0.99950402  0.55919185  0.24998483     0.84530
C622        C  0.00073111  0.93996448  0.24974843     0.90800
O623        O  0.02564135  0.74957327  0.20462295    -0.72950
O624        O  0.02543149  0.75206026  0.29537416    -0.73930
O625        O  0.02591943  0.70565247  0.25102326    -0.62550
O626        O  0.02541140  0.79594144  0.24873814    -0.70960
O627        O  0.47527090  0.79553525  0.25199240    -0.70510
O628        O  0.47598522  0.70492006  0.24892333    -0.61770
O629        O  0.47531902  0.74862461  0.29546931    -0.74280
O630        O  0.47545796  0.75187739  0.20498333    -0.73060
Cu631      Cu  0.02735980  0.75081806  0.24994324     1.04560
Cu632      Cu  0.47373447  0.75022543  0.25031173     1.04330
C633        C  0.00050609  0.75080373  0.19058488     0.93250
C634        C  0.00032746  0.75025036  0.30966960     0.92390
C635        C  0.00116646  0.69081413  0.24999115     0.84530
C636        C  0.00029563  0.80995606  0.25057686     0.90800
O637        O  0.27556808  0.49832398  0.29572181    -0.72950
O638        O  0.27597787  0.50139457  0.20507975    -0.73930
O639        O  0.27536280  0.54512408  0.25209019    -0.62550
O640        O  0.27613712  0.95468055  0.24900990    -0.70960
O641        O  0.22609642  0.95408229  0.25070129    -0.70510
O642        O  0.22522704  0.54469735  0.24966039    -0.61770
O643        O  0.22578566  0.49877876  0.20501603    -0.74200
O644        O  0.22542834  0.49994390  0.29564553    -0.73060
Cu645      Cu  0.27751748  0.49991466  0.25046555     1.04560
Cu646      Cu  0.22387155  0.49936393  0.25027532     1.04330
C647        C  0.25042031  0.49884919  0.30999938     0.93250
C648        C  0.25094187  0.50013397  0.19084974     0.92390
C649        C  0.25019715  0.55917614  0.25112194     0.84530
C650        C  0.25126249  0.93997350  0.24954840     0.90800
O651        O  0.27561126  0.74974525  0.20392402    -0.72950
O652        O  0.27449134  0.74949029  0.29439094    -0.73930
O653        O  0.27508141  0.70392607  0.24934769    -0.62550
O654        O  0.27467455  0.79466356  0.24929818    -0.70960
O655        O  0.22460356  0.79407865  0.24909203    -0.70510
O656        O  0.22489423  0.70362325  0.24844232    -0.61770
O657        O  0.22440825  0.74871820  0.29439154    -0.74280
O658        O  0.22538355  0.74883586  0.20344291    -0.73060
Cu659      Cu  0.27670429  0.74940546  0.24923510     1.04560
Cu660      Cu  0.22306526  0.74878725  0.24883285     1.04330
C661        C  0.25070106  0.74946703  0.18945224     0.93250
C662        C  0.24942312  0.74957215  0.30879132     0.92390
C663        C  0.25001524  0.68949920  0.24875042     0.84530
C664        C  0.24949300  0.80876933  0.24943757     0.90800
O665        O  0.49825146  0.97499487  0.45485891    -0.72950
O666        O  0.50014241  0.97525867  0.04538631    -0.73930
O667        O  0.45381149  0.97506646  0.00135093    -0.62550
O668        O  0.04452055  0.97537438  0.49901938    -0.70960
O669        O  0.04420941  0.52543363  0.50117616    -0.70510
O670        O  0.45362094  0.52510735  0.99911318    -0.61770
O671        O  0.49757545  0.52536811  0.04535143    -0.74280
O672        O  0.49993055  0.52515317  0.45471070    -0.73060
Cu673      Cu  0.49917454  0.97340674  0.00013769     1.04560
Cu674      Cu  0.49885412  0.52703214  0.50005355     1.04330
C675        C  0.49907372  0.50003063  0.44059932     0.93250
C676        C  0.49874769  0.50031358  0.05955494     0.92390
C677        C  0.43939368  0.50001907  0.00049951     0.84530
C678        C  0.05867737  0.50051160  0.50032763     0.90800
O679        O  0.00017078  0.72655778  0.45419322    -0.72950
O680        O  0.00015017  0.72479253  0.04483952    -0.73930
O681        O  0.45489208  0.72462189  0.99947434    -0.62550
O682        O  0.04554383  0.72666598  0.49944348    -0.70960
O683        O  0.04480335  0.77663572  0.50030876    -0.70510
O684        O  0.45409523  0.77476564  0.50081943    -0.61770
O685        O  0.99947906  0.77473831  0.04588059    -0.74280
O686        O  0.99953441  0.77659143  0.45512581    -0.73060
Cu687      Cu  0.00022396  0.72392465  0.99946098     1.04560
Cu688      Cu  0.99942495  0.77743025  0.50056376     1.04330
C689        C  0.99998903  0.75184607  0.44029016     0.93250
C690        C  0.99995271  0.74945090  0.05980603     0.92390
C691        C  0.44029809  0.74942487  0.50016960     0.84530
C692        C  0.05960241  0.75191788  0.49977766     0.90800
O693        O  0.25016587  0.97512116  0.45515053    -0.72950
O694        O  0.24846308  0.97649267  0.04595374    -0.73930
O695        O  0.20383711  0.97550160  0.99961487    -0.62550
O696        O  0.29445817  0.97594685  0.50125343    -0.70960
O697        O  0.29417138  0.52594500  0.49853981    -0.70510
O698        O  0.20348759  0.52557636  0.00101880    -0.61770
O699        O  0.24982762  0.52638366  0.04508199    -0.74280
O700        O  0.24765307  0.52516367  0.45457325    -0.73060
Cu701      Cu  0.24920762  0.97400763  0.00054559     1.04560
Cu702      Cu  0.24879182  0.52750599  0.49979803     1.04330
C703        C  0.24873863  0.49997748  0.44057520     0.93250
C704        C  0.24938163  0.50170975  0.06000780     0.92390
C705        C  0.18935377  0.50042048  0.00008332     0.84530
C706        C  0.30864918  0.50104133  0.49966786     0.90800
O707        O  0.24847562  0.72566788  0.45322124    -0.72950
O708        O  0.25184057  0.72382465  0.04381298    -0.73930
O709        O  0.20523182  0.72495819  0.00022195    -0.62550
O710        O  0.29579791  0.72433735  0.49669586    -0.70960
O711        O  0.29645668  0.77443688  0.49922397    -0.70510
O712        O  0.20560225  0.77494230  0.50011401    -0.61770
O713        O  0.25146372  0.77382732  0.04491384    -0.74280
O714        O  0.25079511  0.77576146  0.45419226    -0.73060
Cu715      Cu  0.25037886  0.72296235  0.99844183     1.04560
Cu716      Cu  0.25110616  0.77650888  0.49962037     1.04330
C717        C  0.24904726  0.75101917  0.43948249     0.93250
C718        C  0.25166626  0.74850493  0.05876136     0.92390
C719        C  0.19099225  0.74998449  0.00060724     0.84530
C720        C  0.31034555  0.74924319  0.49779902     0.90800
C721        C  0.40712149  0.74883817  0.50001938    -0.00160
C722        C  0.39212795  0.74448987  0.47251861    -0.12040
C723        C  0.36049420  0.74436113  0.47134231     0.02070
C724        C  0.34356673  0.74890601  0.49800784    -0.00250
C725        C  0.35859542  0.75302079  0.02556692    -0.11980
C726        C  0.39023881  0.75275620  0.02679006     0.01960
H727        H  0.40517575  0.74133182  0.45194439     0.14940
H728        H  0.34557260  0.75611005  0.04616461     0.14940
C729        C  0.40494164  0.75570249  0.05574030     0.36590
C730        C  0.34597934  0.73976630  0.44254829     0.36500
N731        N  0.41676941  0.75778834  0.07893973    -0.43750
N732        N  0.33464572  0.73591068  0.41933857    -0.43750
C733        C  0.15737136  0.75020095  0.50114194    -0.00160
C734        C  0.14218379  0.77609728  0.49100333    -0.12040
C735        C  0.11054924  0.77734159  0.49030435     0.02070
C736        C  0.09322560  0.75219701  0.49997192    -0.00250
C737        C  0.10842453  0.72638381  0.01028607    -0.11980
C738        C  0.14002701  0.72518346  0.01111591     0.01960
H739        H  0.15507744  0.79542284  0.48309361     0.14940
H740        H  0.09554577  0.70704747  0.01820236     0.14940
C741        C  0.15372664  0.69821138  0.02318536     0.36590
C742        C  0.09679281  0.80450248  0.47876803     0.36500
N743        N  0.16447640  0.67650293  0.03289613    -0.43750
N744        N  0.08603510  0.82643095  0.46957882    -0.43750
C745        C  0.40596411  0.50001700  0.00079277    -0.00160
C746        C  0.39065902  0.52154115  0.48333477    -0.12040
C747        C  0.35904017  0.52209023  0.48231330     0.02070
C748        C  0.34209301  0.50111638  0.49950168    -0.00250
C749        C  0.35740120  0.97967681  0.01708046    -0.11980
C750        C  0.38903059  0.97903800  0.01798520     0.01960
H751        H  0.40347295  0.53756892  0.46984080     0.14940
H752        H  0.34458919  0.96370322  0.03064026     0.14940
C753        C  0.40343126  0.95764177  0.03789487     0.36590
C754        C  0.34468265  0.54335032  0.46223304     0.36500
N755        N  0.41497382  0.94064190  0.05399447    -0.43750
N756        N  0.33319864  0.56024307  0.44597994    -0.43750
C757        C  0.15595384  0.50022311  0.99971627    -0.00160
C758        C  0.14026791  0.52017844  0.01872862    -0.12040
C759        C  0.10861412  0.52043332  0.01952046     0.02070
C760        C  0.09209250  0.50070266  0.50067453    -0.00250
C761        C  0.10778672  0.98077002  0.48162967    -0.11980
C762        C  0.13944599  0.98050595  0.48085468     0.01960
H763        H  0.15280150  0.53517248  0.03350470     0.14940
H764        H  0.09525983  0.96579389  0.46683036     0.14940
C765        C  0.15439131  0.96094572  0.45940487     0.36590
C766        C  0.09370295  0.53999992  0.04098708     0.36500
N767        N  0.16639316  0.94544753  0.44208029    -0.43750
N768        N  0.08174091  0.55550605  0.05833172    -0.43750
C769        C  0.25119085  0.74957717  0.15619868    -0.00160
C770        C  0.23856798  0.72507797  0.14076191    -0.12040
C771        C  0.23894344  0.72386110  0.10915170     0.02070
C772        C  0.25162686  0.74801514  0.09232992    -0.00250
C773        C  0.26402255  0.77272663  0.10801074    -0.11980
C774        C  0.26415890  0.77353537  0.13966799     0.01960
H775        H  0.22867168  0.70657732  0.15353897     0.14940
H776        H  0.27385008  0.79145131  0.09550617     0.14940
C777        C  0.27682943  0.79956745  0.15470479     0.36590
C778        C  0.22553642  0.69782186  0.09482736     0.36500
N779        N  0.28690619  0.82045641  0.16675802    -0.43750
N780        N  0.21489718  0.67677544  0.08356445    -0.43750
C781        C  0.24935545  0.75078392  0.34235436    -0.00160
C782        C  0.22466540  0.73849873  0.35833917    -0.12040
C783        C  0.22400132  0.73859312  0.39002333     0.02070
C784        C  0.24807115  0.75164264  0.40623338    -0.00250
C785        C  0.27208264  0.76500888  0.39046537    -0.11980
C786        C  0.27325178  0.76426904  0.35885940     0.01960
H787        H  0.20600331  0.72840957  0.34609653     0.14940
H788        H  0.29031584  0.77557319  0.40295251     0.14940
C789        C  0.29910222  0.77795160  0.34419163     0.36590
C790        C  0.19793037  0.72621195  0.40545043     0.36500
N791        N  0.31994241  0.78879530  0.33255301    -0.43750
N792        N  0.17698512  0.71651887  0.41789277    -0.43750
C793        C  0.24997815  0.50206737  0.09373851    -0.00160
C794        C  0.24578037  0.97466104  0.10942853    -0.12040
C795        C  0.24616043  0.97360888  0.14106185     0.02070
C796        C  0.25099247  0.50022958  0.15766185    -0.00250
C797        C  0.25543858  0.52753898  0.14242698    -0.11980
C798        C  0.25485802  0.52881353  0.11079083     0.01960
H799        H  0.24207640  0.95387839  0.09703299     0.14940
H800        H  0.25910795  0.54802771  0.15536356     0.14940
C801        C  0.25950260  0.55795214  0.09685738     0.36590
C802        C  0.24202949  0.94491265  0.15607127     0.36500
N803        N  0.26318226  0.58140072  0.08588011    -0.43750
N804        N  0.23881376  0.92194644  0.16815358    -0.43750
C805        C  0.24856212  0.49959255  0.40722038    -0.00160
C806        C  0.26904531  0.98086007  0.39190465    -0.12040
C807        C  0.27021116  0.98038798  0.36026560     0.02070
C808        C  0.25013729  0.49850987  0.34341191    -0.00250
C809        C  0.22917431  0.51670472  0.35877914    -0.11980
C810        C  0.22841301  0.51759993  0.39040586     0.01960
H811        H  0.28447896  0.96685450  0.40471862     0.14940
H812        H  0.21356963  0.53057125  0.34602462     0.14940
C813        C  0.20606783  0.53636799  0.40504025     0.36590
C814        C  0.29151570  0.96038899  0.34572474     0.36500
N815        N  0.18813663  0.55134846  0.41679517    -0.43750
N816        N  0.30856938  0.94434393  0.33407744    -0.43750
C817        C  0.24939798  0.84233042  0.24972281    -0.00160
C818        C  0.27511839  0.85778431  0.23912903    -0.12040
C819        C  0.27629535  0.88937058  0.23860757     0.02070
C820        C  0.25134899  0.90639401  0.24916335    -0.00250
C821        C  0.22563605  0.89092363  0.25978173    -0.11980
C822        C  0.22444613  0.85933747  0.26025677     0.01960
H823        H  0.29436376  0.84513033  0.23073733     0.14940
H824        H  0.20640255  0.90355360  0.26823811     0.14940
C825        C  0.19767227  0.84524023  0.27270276     0.36590
C826        C  0.30309048  0.90342767  0.22617368     0.36500
N827        N  0.17619167  0.83406169  0.28274593    -0.43750
N828        N  0.32459329  0.91457191  0.21614195    -0.43750
C829        C  0.25000292  0.59249021  0.25123151    -0.00160
C830        C  0.23182601  0.60770566  0.23029369    -0.12040
C831        C  0.23167187  0.63928392  0.22893793     0.02070
C832        C  0.25000989  0.65616799  0.24883502    -0.00250
C833        C  0.26808104  0.64093927  0.26988355    -0.11980
C834        C  0.26793047  0.60935211  0.27148038     0.01960
H835        H  0.21810277  0.59485252  0.21458543     0.14940
H836        H  0.28169697  0.65379027  0.28568051     0.14940
C837        C  0.28483646  0.59483712  0.29524870     0.36590
C838        C  0.21335190  0.65369849  0.20619636     0.36500
N839        N  0.29804275  0.58316129  0.31450428    -0.43750
N840        N  0.19860545  0.66504360  0.18789538    -0.43750
C841        C  0.00015534  0.74902555  0.09346158    -0.00160
C842        C  0.49105890  0.77516128  0.10914212    -0.12040
C843        C  0.49091363  0.77611808  0.14077726     0.02070
C844        C  0.00037539  0.75076810  0.15736179    -0.00250
C845        C  0.00973600  0.72477024  0.14204373    -0.11980
C846        C  0.00945973  0.72350544  0.11040288     0.01960
H847        H  0.48381481  0.79494117  0.09670051     0.14940
H848        H  0.01699450  0.70524554  0.15491190     0.14940
C849        C  0.01931627  0.69583694  0.09624904     0.36590
C850        C  0.48176362  0.80360888  0.15575524     0.36500
N851        N  0.02713512  0.67355331  0.08506345    -0.43750
N852        N  0.47451178  0.82565671  0.16775755    -0.43750
C853        C  0.00014565  0.75030678  0.34294733    -0.00160
C854        C  0.01486661  0.77377446  0.35821449    -0.12040
C855        C  0.01462019  0.77516458  0.38984029     0.02070
C856        C  0.00009877  0.75218159  0.40677563    -0.00250
C857        C  0.48563913  0.72851285  0.39131214    -0.11980
C858        C  0.48522940  0.72761670  0.35968072     0.01960
H859        H  0.02619520  0.79135012  0.34533654     0.14940
H860        H  0.47433648  0.71077685  0.40397261     0.14940
C861        C  0.47018006  0.70271886  0.34490293     0.36590
C862        C  0.03000002  0.80010812  0.40411179     0.36500
N863        N  0.45815971  0.68278294  0.33301205    -0.43750
N864        N  0.04222833  0.82031033  0.41530103    -0.43750
C865        C  0.49879698  0.50026787  0.09271647    -0.00160
C866        C  0.02542468  0.99250716  0.10770357    -0.12040
C867        C  0.02671377  0.99237405  0.13929882     0.02070
C868        C  0.50054524  0.49953489  0.15655243    -0.00250
C869        C  0.47377449  0.50705641  0.14117789    -0.11980
C870        C  0.47282013  0.50771484  0.10954096     0.01960
H871        H  0.04542187  0.98684611  0.09460025     0.14940
H872        H  0.45354117  0.51274283  0.15384904     0.14940
C873        C  0.44483693  0.51551302  0.09476739     0.36590
C874        C  0.05522376  0.98453509  0.15300479     0.36500
N875        N  0.42244079  0.52174071  0.08287672    -0.43750
N876        N  0.07818872  0.97834418  0.16379303    -0.43750
C877        C  0.49924791  0.49989272  0.40743511    -0.00160
C878        C  0.02701095  0.00045319  0.39225830    -0.12040
C879        C  0.02833616  0.00013778  0.36062603     0.02070
C880        C  0.50119910  0.99943364  0.34351652    -0.00250
C881        C  0.47338138  0.49883814  0.35916431    -0.11980
C882        C  0.47225725  0.49897588  0.39079365     0.01960
H883        H  0.04778107  0.00102522  0.40523969     0.14940
H884        H  0.45230655  0.49820986  0.34674092     0.14940
C885        C  0.44316641  0.49816514  0.40571220     0.36590
C886        C  0.05796711  0.00049017  0.34679373     0.36500
N887        N  0.41981664  0.49745206  0.41758138    -0.43750
N888        N  0.08180792  0.00072484  0.33591235    -0.43750
C889        C  0.00029189  0.84316867  0.25085024    -0.00160
C890        C  0.01550962  0.85864463  0.22768249    -0.12040
C891        C  0.01568475  0.89021997  0.22678436     0.02070
C892        C  0.00081625  0.90673280  0.24964778    -0.00250
C893        C  0.48564397  0.89125210  0.27287738    -0.11980
C894        C  0.48544920  0.85964819  0.27375907     0.01960
H895        H  0.02672658  0.84600139  0.20989940     0.14940
H896        H  0.47443405  0.90389883  0.29065935     0.14940
C897        C  0.47133183  0.84464266  0.29916133     0.36590
C898        C  0.02979787  0.90508902  0.20133541     0.36500
N899        N  0.46030977  0.83255156  0.31962985    -0.43750
N900        N  0.04085485  0.91685514  0.18071117    -0.43750
C901        C  0.99922391  0.59288065  0.24992127    -0.00160
C902        C  0.02691624  0.60836361  0.25208210    -0.12040
C903        C  0.02831130  0.63993914  0.25215734     0.02070
C904        C  0.00140068  0.65712365  0.25002298    -0.00250
C905        C  0.47370068  0.64164195  0.24785697    -0.11980
C906        C  0.47231129  0.61005672  0.24774283     0.01960
H907        H  0.04783411  0.59576599  0.25381101     0.14940
H908        H  0.45278319  0.65424282  0.24614643     0.14940
C909        C  0.44278931  0.59630448  0.24511843     0.36590
C910        C  0.05786481  0.65366287  0.25456444     0.36500
N911        N  0.41904941  0.58547666  0.24299820    -0.43750
N912        N  0.08163162  0.66446800  0.25649390    -0.43750
O913        O  0.02565258  0.99926806  0.79487262    -0.72950
O914        O  0.02529953  0.50032666  0.70461103    -0.73930
O915        O  0.02473221  0.54513106  0.75016012    -0.62550
O916        O  0.02574293  0.95444513  0.74889573    -0.70960
O917        O  0.47555884  0.95394432  0.75082703    -0.70510
O918        O  0.47476437  0.54430431  0.74990705    -0.61770
O919        O  0.47529219  0.49881956  0.70469460    -0.74280
O920        O  0.47567824  0.99947957  0.79571085    -0.73060
Cu921      Cu  0.02707564  0.49981338  0.74964951     1.04560
Cu922      Cu  0.47356802  0.99911593  0.75028699     1.04330
C923        C  0.00089396  0.99937427  0.80978561     0.93250
C924        C  0.00039160  0.49950161  0.69020147     0.92390
C925        C  0.99950405  0.55919186  0.74998483     0.84530
C926        C  0.00073113  0.93996449  0.74974842     0.90800
O927        O  0.02564136  0.74957328  0.70462295    -0.72950
O928        O  0.02543151  0.75206028  0.79537416    -0.73930
O929        O  0.02591946  0.70565248  0.75102326    -0.62550
O930        O  0.02541141  0.79594145  0.74873813    -0.70960
O931        O  0.47527088  0.79553526  0.75199239    -0.70510
O932        O  0.47598519  0.70492007  0.74892334    -0.61770
O933        O  0.47531900  0.74862463  0.79546931    -0.74280
O934        O  0.47545794  0.75187739  0.70498333    -0.73060
Cu935      Cu  0.02735982  0.75081807  0.74994324     1.04560
Cu936      Cu  0.47373445  0.75022544  0.75031173     1.04330
C937        C  0.00050610  0.75080374  0.69058488     0.93250
C938        C  0.00032748  0.75025037  0.80966960     0.92390
C939        C  0.00116648  0.69081414  0.74999116     0.84530
C940        C  0.00029564  0.80995607  0.75057686     0.90800
O941        O  0.27556809  0.49832399  0.79572181    -0.72950
O942        O  0.27597788  0.50139459  0.70507975    -0.73930
O943        O  0.27536280  0.54512410  0.75209019    -0.62550
O944        O  0.27613713  0.95468057  0.74900990    -0.70960
O945        O  0.22609643  0.95408231  0.75070129    -0.70510
O946        O  0.22522704  0.54469736  0.74966040    -0.61770
O947        O  0.22578567  0.49877878  0.70501603    -0.74200
O948        O  0.22542834  0.49994391  0.79564553    -0.73060
Cu949      Cu  0.27751749  0.49991468  0.75046555     1.04560
Cu950      Cu  0.22387156  0.49936395  0.75027532     1.04330
C951        C  0.25042031  0.49884919  0.80999938     0.93250
C952        C  0.25094187  0.50013400  0.69084974     0.92390
C953        C  0.25019715  0.55917615  0.75112195     0.84530
C954        C  0.25126250  0.93997352  0.74954839     0.90800
O955        O  0.27561127  0.74974527  0.70392401    -0.72950
O956        O  0.27449137  0.74949030  0.79439093    -0.73930
O957        O  0.27508143  0.70392608  0.74934768    -0.62550
O958        O  0.27467456  0.79466358  0.74929818    -0.70960
O959        O  0.22460358  0.79407866  0.74909203    -0.70510
O960        O  0.22489425  0.70362326  0.74844232    -0.61770
O961        O  0.22440827  0.74871821  0.79439154    -0.74280
O962        O  0.22538356  0.74883588  0.70344291    -0.73060
Cu963      Cu  0.27670431  0.74940547  0.74923509     1.04560
Cu964      Cu  0.22306528  0.74878726  0.74883286     1.04330
C965        C  0.25070107  0.74946705  0.68945224     0.93250
C966        C  0.24942314  0.74957216  0.80879132     0.92390
C967        C  0.25001526  0.68949921  0.74875042     0.84530
C968        C  0.24949301  0.80876934  0.74943758     0.90800
O969        O  0.49825145  0.97499486  0.95485891    -0.72950
O970        O  0.50014242  0.97525868  0.54538631    -0.73930
O971        O  0.45381150  0.97506646  0.50135092    -0.62550
O972        O  0.04452054  0.97537437  0.99901939    -0.70960
O973        O  0.04420941  0.52543362  0.00117618    -0.70510
O974        O  0.45362095  0.52510735  0.49911318    -0.61770
O975        O  0.49757545  0.52536812  0.54535142    -0.74280
O976        O  0.49993054  0.52515316  0.95471070    -0.73060
Cu977      Cu  0.49917455  0.97340675  0.50013769     1.04560
Cu978      Cu  0.49885412  0.52703213  0.00005355     1.04330
C979        C  0.49907371  0.50003063  0.94059932     0.93250
C980        C  0.49874769  0.50031360  0.55955494     0.92390
C981        C  0.43939368  0.50001907  0.50049950     0.84530
C982        C  0.05867737  0.50051159  0.00032764     0.90800
O983        O  0.00017080  0.72655779  0.95419321    -0.72950
O984        O  0.00015015  0.72479253  0.54483952    -0.73930
O985        O  0.45489207  0.72462188  0.49947433    -0.62550
O986        O  0.04554384  0.72666598  0.99944348    -0.70960
O987        O  0.04480337  0.77663571  0.00030876    -0.70510
O988        O  0.45409525  0.77476565  0.00081944    -0.61770
O989        O  0.99947904  0.77473831  0.54588059    -0.74280
O990        O  0.99953442  0.77659144  0.95512581    -0.73060
Cu991      Cu  0.00022394  0.72392465  0.49946098     1.04560
Cu992      Cu  0.99942497  0.77743025  0.00056376     1.04330
C993        C  0.99998905  0.75184608  0.94029016     0.93250
C994        C  0.99995270  0.74945090  0.55980603     0.92390
C995        C  0.44029810  0.74942488  0.00016961     0.84530
C996        C  0.05960243  0.75191788  0.99977766     0.90800
O997        O  0.25016586  0.97512114  0.95515052    -0.72950
O998        O  0.24846309  0.97649269  0.54595375    -0.73930
O999        O  0.20383711  0.97550162  0.49961487    -0.62550
O1000       O  0.29445817  0.97594683  0.00125343    -0.70960
O1001       O  0.29417137  0.52594499  0.99853981    -0.70510
O1002       O  0.20348760  0.52557638  0.50101879    -0.61770
O1003       O  0.24982762  0.52638368  0.54508199    -0.74280
O1004       O  0.24765306  0.52516366  0.95457325    -0.73060
Cu1005     Cu  0.24920763  0.97400764  0.50054559     1.04560
Cu1006     Cu  0.24879181  0.52750597  0.99979803     1.04330
C1007       C  0.24873862  0.49997747  0.94057520     0.93250
C1008       C  0.24938163  0.50170977  0.56000780     0.92390
C1009       C  0.18935378  0.50042051  0.50008331     0.84530
C1010       C  0.30864917  0.50104132  0.99966786     0.90800
O1011       O  0.24847565  0.72566787  0.95322124    -0.72950
O1012       O  0.25184055  0.72382466  0.54381298    -0.73930
O1013       O  0.20523181  0.72495820  0.50022195    -0.62550
O1014       O  0.29579793  0.72433734  0.99669586    -0.70960
O1015       O  0.29645670  0.77443687  0.99922398    -0.70510
O1016       O  0.20560226  0.77494229  0.00011401    -0.61770
O1017       O  0.25146371  0.77382734  0.54491384    -0.74280
O1018       O  0.25079514  0.77576145  0.95419226    -0.73060
Cu1019     Cu  0.25037884  0.72296236  0.49844183     1.04560
Cu1020     Cu  0.25110617  0.77650887  0.99962038     1.04330
C1021       C  0.24904729  0.75101917  0.93948249     0.93250
C1022       C  0.25166625  0.74850495  0.55876136     0.92390
C1023       C  0.19099223  0.74998450  0.50060725     0.84530
C1024       C  0.31034557  0.74924319  0.99779903     0.90800
C1025       C  0.40712150  0.74883819  0.00001939    -0.00160
C1026       C  0.39212797  0.74448985  0.97251862    -0.12040
C1027       C  0.36049422  0.74436110  0.97134233     0.02070
C1028       C  0.34356674  0.74890601  0.99800784    -0.00250
C1029       C  0.35859540  0.75302076  0.52556692    -0.11980
C1030       C  0.39023879  0.75275616  0.52679005     0.01960
H1031       H  0.40517577  0.74133178  0.95194441     0.14940
H1032       H  0.34557258  0.75610999  0.54616461     0.14940
C1033       C  0.40494163  0.75570242  0.55574030     0.36590
C1034       C  0.34597936  0.73976624  0.94254831     0.36500
N1035       N  0.41676940  0.75778824  0.57893973    -0.43750
N1036       N  0.33464573  0.73591061  0.91933859    -0.43750
C1037       C  0.15737137  0.75020095  0.00114194    -0.00160
C1038       C  0.14218381  0.77609726  0.99100329    -0.12040
C1039       C  0.11054926  0.77734158  0.99030431     0.02070
C1040       C  0.09322562  0.75219701  0.99997192    -0.00250
C1041       C  0.10842451  0.72638381  0.51028605    -0.11980
C1042       C  0.14002700  0.72518346  0.51111589     0.01960
H1043       H  0.15507746  0.79542281  0.98309356     0.14940
H1044       H  0.09554576  0.70704745  0.51820231     0.14940
C1045       C  0.15372662  0.69821136  0.52318531     0.36590
C1046       C  0.09679283  0.80450245  0.97876797     0.36500
N1047       N  0.16447638  0.67650290  0.53289606    -0.43750
N1048       N  0.08603512  0.82643091  0.96957873    -0.43750
C1049       C  0.40596411  0.50001700  0.50079277    -0.00160
C1050       C  0.39065902  0.52154114  0.98333477    -0.12040
C1051       C  0.35904017  0.52209022  0.98231329     0.02070
C1052       C  0.34209300  0.50111637  0.99950168    -0.00250
C1053       C  0.35740120  0.97967681  0.51708045    -0.11980
C1054       C  0.38903059  0.97903800  0.51798519     0.01960
H1055       H  0.40347294  0.53756892  0.96984080     0.14940
H1056       H  0.34458919  0.96370321  0.53064023     0.14940
C1057       C  0.40343127  0.95764175  0.53789484     0.36590
C1058       C  0.34468265  0.54335031  0.96223304     0.36500
N1059       N  0.41497383  0.94064187  0.55399442    -0.43750
N1060       N  0.33319864  0.56024306  0.94597993    -0.43750
C1061       C  0.15595384  0.50022314  0.49971626    -0.00160
C1062       C  0.14026791  0.52017847  0.51872861    -0.12040
C1063       C  0.10861412  0.52043334  0.51952045     0.02070
C1064       C  0.09209250  0.50070264  0.00067455    -0.00250
C1065       C  0.10778671  0.98076999  0.98162969    -0.11980
C1066       C  0.13944598  0.98050593  0.98085470     0.01960
H1067       H  0.15280150  0.53517251  0.53350468     0.14940
H1068       H  0.09525982  0.96579386  0.96683039     0.14940
C1069       C  0.15439130  0.96094568  0.95940490     0.36590
C1070       C  0.09370295  0.53999995  0.54098706     0.36500
N1071       N  0.16639315  0.94544748  0.94208033    -0.43750
N1072       N  0.08174091  0.55550608  0.55833170    -0.43750
C1073       C  0.25119085  0.74957719  0.65619867    -0.00160
C1074       C  0.23856794  0.72507800  0.64076190    -0.12040
C1075       C  0.23894340  0.72386114  0.60915170     0.02070
C1076       C  0.25162686  0.74801516  0.59232992    -0.00250
C1077       C  0.26402258  0.77272663  0.60801074    -0.11980
C1078       C  0.26415893  0.77353537  0.63966798     0.01960
H1079       H  0.22867162  0.70657737  0.65353897     0.14940
H1080       H  0.27385013  0.79145130  0.59550617     0.14940
C1081       C  0.27682950  0.79956744  0.65470479     0.36590
C1082       C  0.22553634  0.69782192  0.59482736     0.36500
N1083       N  0.28690628  0.82045638  0.66675801    -0.43750
N1084       N  0.21489707  0.67677551  0.58356445    -0.43750
C1085       C  0.24935548  0.75078392  0.84235436    -0.00160
C1086       C  0.22466542  0.73849874  0.85833917    -0.12040
C1087       C  0.22400134  0.73859313  0.89002333     0.02070
C1088       C  0.24807118  0.75164264  0.90623338    -0.00250
C1089       C  0.27208268  0.76500886  0.89046537    -0.11980
C1090       C  0.27325182  0.76426903  0.85885940     0.01960
H1091       H  0.20600332  0.72840960  0.84609653     0.14940
H1092       H  0.29031589  0.77557316  0.90295252     0.14940
C1093       C  0.29910227  0.77795157  0.84419163     0.36590
C1094       C  0.19793039  0.72621197  0.90545043     0.36500
N1095       N  0.31994247  0.78879526  0.83255302    -0.43750
N1096       N  0.17698514  0.71651890  0.91789276    -0.43750
C1097       C  0.24997815  0.50206739  0.59373851    -0.00160
C1098       C  0.24578037  0.97466106  0.60942854    -0.12040
C1099       C  0.24616044  0.97360890  0.64106185     0.02070
C1100       C  0.25099247  0.50022960  0.65766185    -0.00250
C1101       C  0.25543858  0.52753900  0.64242698    -0.11980
C1102       C  0.25485801  0.52881355  0.61079082     0.01960
H1103       H  0.24207640  0.95387841  0.59703299     0.14940
H1104       H  0.25910795  0.54802773  0.65536356     0.14940
C1105       C  0.25950259  0.55795217  0.59685738     0.36590
C1106       C  0.24202949  0.94491267  0.65607127     0.36500
N1107       N  0.26318224  0.58140075  0.58588011    -0.43750
N1108       N  0.23881377  0.92194646  0.66815358    -0.43750
C1109       C  0.24856211  0.49959254  0.90722038    -0.00160
C1110       C  0.26904530  0.98086006  0.89190465    -0.12040
C1111       C  0.27021116  0.98038798  0.86026560     0.02070
C1112       C  0.25013730  0.49850987  0.84341191    -0.00250
C1113       C  0.22917430  0.51670470  0.85877914    -0.11980
C1114       C  0.22841300  0.51759991  0.89040586     0.01960
H1115       H  0.28447896  0.96685449  0.90471862     0.14940
H1116       H  0.21356962  0.53057123  0.84602462     0.14940
C1117       C  0.20606781  0.53636795  0.90504026     0.36590
C1118       C  0.29151570  0.96038899  0.84572474     0.36500
N1119       N  0.18813659  0.55134841  0.91679518    -0.43750
N1120       N  0.30856938  0.94434393  0.83407744    -0.43750
C1121       C  0.24939800  0.84233044  0.74972281    -0.00160
C1122       C  0.27511841  0.85778432  0.73912904    -0.12040
C1123       C  0.27629537  0.88937060  0.73860758     0.02070
C1124       C  0.25134901  0.90639403  0.74916335    -0.00250
C1125       C  0.22563606  0.89092364  0.75978172    -0.11980
C1126       C  0.22444615  0.85933748  0.76025677     0.01960
H1127       H  0.29436379  0.84513034  0.73073735     0.14940
H1128       H  0.20640255  0.90355361  0.76823809     0.14940
C1129       C  0.19767228  0.84524024  0.77270274     0.36590
C1130       C  0.30309051  0.90342769  0.72617370     0.36500
N1131       N  0.17619167  0.83406171  0.78274590    -0.43750
N1132       N  0.32459331  0.91457193  0.71614199    -0.43750
C1133       C  0.25000293  0.59249022  0.75123152    -0.00160
C1134       C  0.23182602  0.60770567  0.73029368    -0.12040
C1135       C  0.23167189  0.63928393  0.72893792     0.02070
C1136       C  0.25000990  0.65616800  0.74883502    -0.00250
C1137       C  0.26808104  0.64093929  0.76988356    -0.11980
C1138       C  0.26793046  0.60935212  0.77148039     0.01960
H1139       H  0.21810279  0.59485253  0.71458542     0.14940
H1140       H  0.28169696  0.65379029  0.78568052     0.14940
C1141       C  0.28483644  0.59483713  0.79524873     0.36590
C1142       C  0.21335193  0.65369850  0.70619634     0.36500
N1143       N  0.29804271  0.58316130  0.81450432    -0.43750
N1144       N  0.19860548  0.66504360  0.68789536    -0.43750
C1145       C  0.00015533  0.74902555  0.59346158    -0.00160
C1146       C  0.49105892  0.77516129  0.60914212    -0.12040
C1147       C  0.49091365  0.77611810  0.64077726     0.02070
C1148       C  0.00037540  0.75076811  0.65736179    -0.00250
C1149       C  0.00973601  0.72477025  0.64204373    -0.11980
C1150       C  0.00945973  0.72350545  0.61040288     0.01960
H1151       H  0.48381487  0.79494120  0.59670050     0.14940
H1152       H  0.01699452  0.70524555  0.65491190     0.14940
C1153       C  0.01931628  0.69583695  0.59624904     0.36590
C1154       C  0.48176370  0.80360891  0.65575524     0.36500
N1155       N  0.02713514  0.67355332  0.58506344    -0.43750
N1156       N  0.47451189  0.82565676  0.66775755    -0.43750
C1157       C  0.00014567  0.75030680  0.84294733    -0.00160
C1158       C  0.01486660  0.77377449  0.85821449    -0.12040
C1159       C  0.01462018  0.77516461  0.88984028     0.02070
C1160       C  0.00009879  0.75218160  0.90677563    -0.00250
C1161       C  0.48563912  0.72851287  0.89131214    -0.11980
C1162       C  0.48522938  0.72761673  0.85968072     0.01960
H1163       H  0.02619517  0.79135016  0.84533654     0.14940
H1164       H  0.47433647  0.71077687  0.90397262     0.14940
C1165       C  0.47018003  0.70271888  0.84490294     0.36590
C1166       C  0.02999997  0.80010817  0.90411179     0.36500
N1167       N  0.45815967  0.68278297  0.83301206    -0.43750
N1168       N  0.04222826  0.82031040  0.91530103    -0.43750
C1169       C  0.49879698  0.50026788  0.59271647    -0.00160
C1170       C  0.02542470  0.99250718  0.60770357    -0.12040
C1171       C  0.02671379  0.99237407  0.63929881     0.02070
C1172       C  0.50054523  0.49953491  0.65655243    -0.00250
C1173       C  0.47377448  0.50705641  0.64117788    -0.11980
C1174       C  0.47282012  0.50771484  0.60954096     0.01960
H1175       H  0.04542189  0.98684614  0.59460025     0.14940
H1176       H  0.45354115  0.51274282  0.65384904     0.14940
C1177       C  0.44483692  0.51551301  0.59476738     0.36590
C1178       C  0.05522378  0.98453512  0.65300479     0.36500
N1179       N  0.42244078  0.52174068  0.58287671    -0.43750
N1180       N  0.07818875  0.97834422  0.66379303    -0.43750
C1181       C  0.49924790  0.49989272  0.90743511    -0.00160
C1182       C  0.02701096  0.00045321  0.89225830    -0.12040
C1183       C  0.02833617  0.00013780  0.86062604     0.02070
C1184       C  0.50119909  0.99943364  0.84351652    -0.00250
C1185       C  0.47338137  0.49883813  0.85916431    -0.11980
C1186       C  0.47225724  0.49897587  0.89079365     0.01960
H1187       H  0.04778108  0.00102524  0.90523969     0.14940
H1188       H  0.45230654  0.49820983  0.84674092     0.14940
C1189       C  0.44316640  0.49816510  0.90571221     0.36590
C1190       C  0.05796712  0.00049021  0.84679374     0.36500
N1191       N  0.41981663  0.49745201  0.91758139    -0.43750
N1192       N  0.08180794  0.00072489  0.83591236    -0.43750
C1193       C  0.00029190  0.84316868  0.75085023    -0.00160
C1194       C  0.01550961  0.85864464  0.72768247    -0.12040
C1195       C  0.01568475  0.89021998  0.72678435     0.02070
C1196       C  0.00081626  0.90673281  0.74964777    -0.00250
C1197       C  0.48564391  0.89125211  0.77287735    -0.11980
C1198       C  0.48544915  0.85964820  0.77375904     0.01960
H1199       H  0.02672656  0.84600140  0.70989938     0.14940
H1200       H  0.47443396  0.90389884  0.79065930     0.14940
C1201       C  0.47133173  0.84464268  0.79916128     0.36590
C1202       C  0.02979785  0.90508903  0.70133538     0.36500
N1203       N  0.46030963  0.83255157  0.81962978    -0.43750
N1204       N  0.04085482  0.91685516  0.68071114    -0.43750
C1205       C  0.99922395  0.59288066  0.74992127    -0.00160
C1206       C  0.02691627  0.60836362  0.75208211    -0.12040
C1207       C  0.02831133  0.63993915  0.75215735     0.02070
C1208       C  0.00140071  0.65712366  0.75002299    -0.00250
C1209       C  0.47370065  0.64164196  0.74785697    -0.11980
C1210       C  0.47231126  0.61005673  0.74774284     0.01960
H1211       H  0.04783414  0.59576601  0.75381102     0.14940
H1212       H  0.45278316  0.65424283  0.74614643     0.14940
C1213       C  0.44278929  0.59630449  0.74511843     0.36590
C1214       C  0.05786484  0.65366289  0.75456445     0.36500
N1215       N  0.41904938  0.58547667  0.74299820    -0.43750
N1216       N  0.08163165  0.66446802  0.75649391    -0.43750
O1217       O  0.52565259  0.49926805  0.29487262    -0.72950
O1218       O  0.52529952  0.00032665  0.20461104    -0.73930
O1219       O  0.52473220  0.04513105  0.25016012    -0.62550
O1220       O  0.52574293  0.45444512  0.24889573    -0.70960
O1221       O  0.97555882  0.45394430  0.25082704    -0.70510
O1222       O  0.97476436  0.04430430  0.24990705    -0.61770
O1223       O  0.97529218  0.99881955  0.20469461    -0.74280
O1224       O  0.97567823  0.49947956  0.29571085    -0.73060
Cu1225     Cu  0.52707564  0.99981337  0.24964951     1.04560
Cu1226     Cu  0.97356800  0.49911592  0.25028699     1.04330
C1227       C  0.50089397  0.49937427  0.30978561     0.93250
C1228       C  0.50039160  0.99950160  0.19020147     0.92390
C1229       C  0.49950404  0.05919185  0.24998483     0.84530
C1230       C  0.50073113  0.43996448  0.24974843     0.90800
O1231       O  0.52564135  0.24957328  0.20462295    -0.72950
O1232       O  0.52543151  0.25206027  0.29537416    -0.73930
O1233       O  0.52591945  0.20565247  0.25102325    -0.62550
O1234       O  0.52541141  0.29594144  0.24873814    -0.70960
O1235       O  0.97527087  0.29553525  0.25199239    -0.70510
O1236       O  0.97598519  0.20492006  0.24892333    -0.61770
O1237       O  0.97531899  0.24862461  0.29546931    -0.74280
O1238       O  0.97545795  0.25187739  0.20498333    -0.73060
Cu1239     Cu  0.52735981  0.25081806  0.24994324     1.04560
Cu1240     Cu  0.97373445  0.25022543  0.25031172     1.04330
C1241       C  0.50050609  0.25080373  0.19058488     0.93250
C1242       C  0.50032748  0.25025036  0.30966960     0.92390
C1243       C  0.50116648  0.19081413  0.24999115     0.84530
C1244       C  0.50029563  0.30995606  0.25057686     0.90800
O1245       O  0.77556809  0.99832398  0.29572181    -0.72950
O1246       O  0.77597788  0.00139457  0.20507975    -0.73930
O1247       O  0.77536281  0.04512409  0.25209019    -0.62550
O1248       O  0.77613712  0.45468055  0.24900990    -0.70960
O1249       O  0.72609642  0.45408229  0.25070129    -0.70510
O1250       O  0.72522705  0.04469735  0.24966039    -0.61770
O1251       O  0.72578567  0.99877876  0.20501603    -0.74200
O1252       O  0.72542835  0.99994390  0.29564553    -0.73060
Cu1253     Cu  0.77751750  0.99991467  0.25046555     1.04560
Cu1254     Cu  0.72387156  0.99936393  0.25027532     1.04330
C1255       C  0.75042032  0.99884919  0.30999938     0.93250
C1256       C  0.75094188  0.00013398  0.19084974     0.92390
C1257       C  0.75019716  0.05917614  0.25112194     0.84530
C1258       C  0.75126249  0.43997350  0.24954840     0.90800
O1259       O  0.77561126  0.24974525  0.20392402    -0.72950
O1260       O  0.77449136  0.24949028  0.29439094    -0.73930
O1261       O  0.77508142  0.20392607  0.24934769    -0.62550
O1262       O  0.77467456  0.29466356  0.24929818    -0.70960
O1263       O  0.72460357  0.29407865  0.24909203    -0.70510
O1264       O  0.72489424  0.20362325  0.24844232    -0.61770
O1265       O  0.72440826  0.24871820  0.29439154    -0.74280
O1266       O  0.72538355  0.24883586  0.20344291    -0.73060
Cu1267     Cu  0.77670430  0.24940546  0.24923510     1.04560
Cu1268     Cu  0.72306527  0.24878725  0.24883286     1.04330
C1269       C  0.75070106  0.24946704  0.18945224     0.93250
C1270       C  0.74942313  0.24957214  0.30879132     0.92390
C1271       C  0.75001525  0.18949920  0.24875042     0.84530
C1272       C  0.74949301  0.30876933  0.24943758     0.90800
O1273       O  0.99825145  0.47499486  0.45485890    -0.72950
O1274       O  0.00014241  0.47525866  0.04538631    -0.73930
O1275       O  0.95381149  0.47506646  0.00135092    -0.62550
O1276       O  0.54452055  0.47537438  0.49901938    -0.70960
O1277       O  0.54420941  0.02543364  0.50117617    -0.70510
O1278       O  0.95362094  0.02510735  0.99911318    -0.61770
O1279       O  0.99757544  0.02536812  0.04535143    -0.74280
O1280       O  0.99993054  0.02515317  0.45471070    -0.73060
Cu1281     Cu  0.99917454  0.47340674  0.00013769     1.04560
Cu1282     Cu  0.99885412  0.02703214  0.50005355     1.04330
C1283       C  0.99907371  0.00003063  0.44059932     0.93250
C1284       C  0.99874769  0.00031360  0.05955494     0.92390
C1285       C  0.93939368  0.00001907  0.00049950     0.84530
C1286       C  0.55867737  0.00051161  0.50032763     0.90800
O1287       O  0.50017079  0.22655777  0.45419322    -0.72950
O1288       O  0.50015016  0.22479252  0.04483952    -0.73930
O1289       O  0.95489208  0.22462187  0.99947433    -0.62550
O1290       O  0.54554383  0.22666596  0.49944349    -0.70960
O1291       O  0.54480336  0.27663570  0.50030877    -0.70510
O1292       O  0.95409523  0.27476563  0.50081944    -0.61770
O1293       O  0.49947905  0.27473831  0.04588059    -0.74280
O1294       O  0.49953441  0.27659142  0.45512581    -0.73060
Cu1295     Cu  0.50022395  0.22392464  0.99946098     1.04560
Cu1296     Cu  0.49942495  0.27743024  0.50056376     1.04330
C1297       C  0.49998904  0.25184606  0.44029016     0.93250
C1298       C  0.49995271  0.24945090  0.05980603     0.92390
C1299       C  0.94029809  0.24942487  0.50016961     0.84530
C1300       C  0.55960242  0.25191787  0.49977767     0.90800
O1301       O  0.75016587  0.47512115  0.45515053    -0.72950
O1302       O  0.74846309  0.47649266  0.04595374    -0.73930
O1303       O  0.70383711  0.47550160  0.99961487    -0.62550
O1304       O  0.79445817  0.47594684  0.50125343    -0.70960
O1305       O  0.79417138  0.02594500  0.49853981    -0.70510
O1306       O  0.70348759  0.02557637  0.00101880    -0.61770
O1307       O  0.74982762  0.02638367  0.04508200    -0.74280
O1308       O  0.74765307  0.02516368  0.45457325    -0.73060
Cu1309     Cu  0.74920763  0.47400762  0.00054559     1.04560
Cu1310     Cu  0.74879182  0.02750599  0.49979804     1.04330
C1311       C  0.74873863  0.99997749  0.44057520     0.93250
C1312       C  0.74938163  0.00170976  0.06000780     0.92390
C1313       C  0.68935377  0.00042050  0.00008332     0.84530
C1314       C  0.80864918  0.00104133  0.49966786     0.90800
O1315       O  0.74847563  0.22566787  0.45322124    -0.72950
O1316       O  0.75184057  0.22382465  0.04381298    -0.73930
O1317       O  0.70523182  0.22495819  0.00022195    -0.62550
O1318       O  0.79579792  0.22433734  0.49669586    -0.70960
O1319       O  0.79645668  0.27443687  0.49922397    -0.70510
O1320       O  0.70560225  0.27494229  0.50011401    -0.61770
O1321       O  0.75146372  0.27382733  0.04491384    -0.74280
O1322       O  0.75079512  0.27576145  0.45419226    -0.73060
Cu1323     Cu  0.75037885  0.22296235  0.99844183     1.04560
Cu1324     Cu  0.75110616  0.27650887  0.49962038     1.04330
C1325       C  0.74904727  0.25101916  0.43948250     0.93250
C1326       C  0.75166626  0.24850494  0.05876137     0.92390
C1327       C  0.69099225  0.24998449  0.00060724     0.84530
C1328       C  0.81034555  0.24924319  0.49779903     0.90800
C1329       C  0.90712149  0.24883817  0.50001939    -0.00160
C1330       C  0.89212796  0.24448984  0.47251862    -0.12040
C1331       C  0.86049421  0.24436109  0.47134233     0.02070
C1332       C  0.84356673  0.24890601  0.49800784    -0.00250
C1333       C  0.85859542  0.25302081  0.02556692    -0.11980
C1334       C  0.89023881  0.25275621  0.02679005     0.01960
H1335       H  0.90517575  0.24133176  0.45194441     0.14940
H1336       H  0.84557260  0.25611008  0.04616461     0.14940
C1337       C  0.90494164  0.25570252  0.05574030     0.36590
C1338       C  0.84597934  0.23976623  0.44254831     0.36500
N1339       N  0.91676941  0.25778838  0.07893972    -0.43750
N1340       N  0.83464572  0.23591060  0.41933859    -0.43750
C1341       C  0.65737136  0.25020094  0.50114194    -0.00160
C1342       C  0.64218379  0.27609726  0.49100332    -0.12040
C1343       C  0.61054924  0.27734157  0.49030434     0.02070
C1344       C  0.59322561  0.25219700  0.49997192    -0.00250
C1345       C  0.60842453  0.22638380  0.01028605    -0.11980
C1346       C  0.64002701  0.22518345  0.01111589     0.01960
H1347       H  0.65507745  0.29542282  0.48309361     0.14940
H1348       H  0.59554577  0.20704745  0.01820232     0.14940
C1349       C  0.65372663  0.19821136  0.02318531     0.36590
C1350       C  0.59679282  0.30450246  0.47876802     0.36500
N1351       N  0.66447640  0.17650290  0.03289606    -0.43750
N1352       N  0.58603510  0.32643093  0.46957881    -0.43750
C1353       C  0.90596411  0.00001700  0.00079277    -0.00160
C1354       C  0.89065902  0.02154115  0.48333479    -0.12040
C1355       C  0.85904017  0.02209023  0.48231331     0.02070
C1356       C  0.84209301  0.00111638  0.49950168    -0.00250
C1357       C  0.85740120  0.47967681  0.01708045    -0.11980
C1358       C  0.88903059  0.47903800  0.01798519     0.01960
H1359       H  0.90347295  0.03756893  0.46984081     0.14940
H1360       H  0.84458919  0.46370322  0.03064024     0.14940
C1361       C  0.90343127  0.45764176  0.03789485     0.36590
C1362       C  0.84468265  0.04335033  0.46223306     0.36500
N1363       N  0.91497383  0.44064189  0.05399444    -0.43750
N1364       N  0.83319865  0.06024309  0.44597996    -0.43750
C1365       C  0.65595384  0.00022313  0.99971627    -0.00160
C1366       C  0.64026790  0.02017846  0.01872861    -0.12040
C1367       C  0.60861411  0.02043334  0.01952045     0.02070
C1368       C  0.59209250  0.00070266  0.50067454    -0.00250
C1369       C  0.60778672  0.48077001  0.48162968    -0.11980
C1370       C  0.63944599  0.48050594  0.48085469     0.01960
H1371       H  0.65280149  0.03517251  0.03350468     0.14940
H1372       H  0.59525983  0.46579388  0.46683037     0.14940
C1373       C  0.65439131  0.46094570  0.45940489     0.36590
C1374       C  0.59370294  0.03999995  0.04098706     0.36500
N1375       N  0.66639316  0.44544751  0.44208031    -0.43750
N1376       N  0.58174091  0.05550608  0.05833169    -0.43750
C1377       C  0.75119085  0.24957718  0.15619868    -0.00160
C1378       C  0.73856795  0.22507799  0.14076191    -0.12040
C1379       C  0.73894341  0.22386112  0.10915170     0.02070
C1380       C  0.75162686  0.24801515  0.09232992    -0.00250
C1381       C  0.76402257  0.27272662  0.10801074    -0.11980
C1382       C  0.76415893  0.27353536  0.13966799     0.01960
H1383       H  0.72867163  0.20657735  0.15353897     0.14940
H1384       H  0.77385012  0.29145130  0.09550617     0.14940
C1385       C  0.77682948  0.29956743  0.15470479     0.36590
C1386       C  0.72553636  0.19782190  0.09482736     0.36500
N1387       N  0.78690625  0.32045638  0.16675802    -0.43750
N1388       N  0.71489710  0.17677549  0.08356445    -0.43750
C1389       C  0.74935547  0.25078391  0.34235436    -0.00160
C1390       C  0.72466541  0.23849873  0.35833917    -0.12040
C1391       C  0.72400133  0.23859312  0.39002333     0.02070
C1392       C  0.74807116  0.25164263  0.40623338    -0.00250
C1393       C  0.77208267  0.26500885  0.39046538    -0.11980
C1394       C  0.77325181  0.26426902  0.35885940     0.01960
H1395       H  0.70600331  0.22840958  0.34609653     0.14940
H1396       H  0.79031587  0.27557315  0.40295252     0.14940
C1397       C  0.79910225  0.27795157  0.34419163     0.36590
C1398       C  0.69793038  0.22621196  0.40545043     0.36500
N1399       N  0.81994245  0.28879526  0.33255302    -0.43750
N1400       N  0.67698512  0.21651888  0.41789276    -0.43750
C1401       C  0.74997815  0.00206738  0.09373852    -0.00160
C1402       C  0.74578037  0.47466104  0.10942853    -0.12040
C1403       C  0.74616043  0.47360887  0.14106185     0.02070
C1404       C  0.75099248  0.00022958  0.15766185    -0.00250
C1405       C  0.75543858  0.02753898  0.14242698    -0.11980
C1406       C  0.75485801  0.02881353  0.11079083     0.01960
H1407       H  0.74207640  0.45387838  0.09703299     0.14940
H1408       H  0.75910795  0.04802771  0.15536356     0.14940
C1409       C  0.75950259  0.05795215  0.09685738     0.36590
C1410       C  0.74202948  0.44491265  0.15607127     0.36500
N1411       N  0.76318224  0.08140073  0.08588011    -0.43750
N1412       N  0.73881376  0.42194644  0.16815358    -0.43750
C1413       C  0.74856213  0.99959255  0.40722038    -0.00160
C1414       C  0.76904530  0.48086006  0.39190465    -0.12040
C1415       C  0.77021116  0.48038798  0.36026560     0.02070
C1416       C  0.75013731  0.99850987  0.34341191    -0.00250
C1417       C  0.72917431  0.01670471  0.35877914    -0.11980
C1418       C  0.72841301  0.01759993  0.39040586     0.01960
H1419       H  0.78447896  0.46685449  0.40471862     0.14940
H1420       H  0.71356964  0.03057125  0.34602462     0.14940
C1421       C  0.70606783  0.03636798  0.40504025     0.36590
C1422       C  0.79151569  0.46038898  0.34572474     0.36500
N1423       N  0.68813662  0.05134846  0.41679517    -0.43750
N1424       N  0.80856937  0.44434392  0.33407744    -0.43750
C1425       C  0.74939799  0.34233042  0.24972282    -0.00160
C1426       C  0.77511840  0.35778431  0.23912903    -0.12040
C1427       C  0.77629535  0.38937058  0.23860757     0.02070
C1428       C  0.75134900  0.40639401  0.24916336    -0.00250
C1429       C  0.72563606  0.39092363  0.25978174    -0.11980
C1430       C  0.72444615  0.35933747  0.26025679     0.01960
H1431       H  0.79436377  0.34513033  0.23073733     0.14940
H1432       H  0.70640256  0.40355359  0.26823812     0.14940
C1433       C  0.69767228  0.34524022  0.27270278     0.36590
C1434       C  0.80309049  0.40342768  0.22617367     0.36500
N1435       N  0.67619169  0.33406169  0.28274595    -0.43750
N1436       N  0.82459329  0.41457192  0.21614195    -0.43750
C1437       C  0.75000293  0.09249021  0.25123152    -0.00160
C1438       C  0.73182603  0.10770566  0.23029368    -0.12040
C1439       C  0.73167189  0.13928392  0.22893792     0.02070
C1440       C  0.75000990  0.15616799  0.24883502    -0.00250
C1441       C  0.76808104  0.14093927  0.26988356    -0.11980
C1442       C  0.76793046  0.10935211  0.27148039     0.01960
H1443       H  0.71810280  0.09485252  0.21458541     0.14940
H1444       H  0.78169696  0.15379027  0.28568052     0.14940
C1445       C  0.78483644  0.09483712  0.29524873     0.36590
C1446       C  0.71335193  0.15369848  0.20619634     0.36500
N1447       N  0.79804271  0.08316129  0.31450432    -0.43750
N1448       N  0.69860549  0.16504359  0.18789535    -0.43750
C1449       C  0.50015533  0.24902554  0.09346158    -0.00160
C1450       C  0.99105892  0.27516128  0.10914212    -0.12040
C1451       C  0.99091364  0.27611808  0.14077726     0.02070
C1452       C  0.50037540  0.25076810  0.15736179    -0.00250
C1453       C  0.50973602  0.22477025  0.14204373    -0.11980
C1454       C  0.50945974  0.22350544  0.11040288     0.01960
H1455       H  0.98381484  0.29494118  0.09670050     0.14940
H1456       H  0.51699453  0.20524554  0.15491190     0.14940
C1457       C  0.51931630  0.19583695  0.09624904     0.36590
C1458       C  0.98176366  0.30360889  0.15575524     0.36500
N1459       N  0.52713516  0.17355332  0.08506345    -0.43750
N1460       N  0.97451183  0.32565673  0.16775755    -0.43750
C1461       C  0.50014568  0.25030678  0.34294733    -0.00160
C1462       C  0.51486662  0.27377446  0.35821449    -0.12040
C1463       C  0.51462020  0.27516457  0.38984029     0.02070
C1464       C  0.50009879  0.25218158  0.40677563    -0.00250
C1465       C  0.98563910  0.22851286  0.39131214    -0.11980
C1466       C  0.98522935  0.22761671  0.35968072     0.01960
H1467       H  0.52619521  0.29135012  0.34533655     0.14940
H1468       H  0.97433644  0.21077687  0.40397261     0.14940
C1469       C  0.97018000  0.20271887  0.34490294     0.36590
C1470       C  0.53000002  0.30010812  0.40411180     0.36500
N1471       N  0.95815963  0.18278296  0.33301206    -0.43750
N1472       N  0.54222832  0.32031033  0.41530104    -0.43750
C1473       C  0.99879697  0.00026788  0.09271647    -0.00160
C1474       C  0.52542469  0.49250714  0.10770356    -0.12040
C1475       C  0.52671378  0.49237403  0.13929881     0.02070
C1476       C  0.00054522  0.99953490  0.15655243    -0.00250
C1477       C  0.97377447  0.00705642  0.14117788    -0.11980
C1478       C  0.97282011  0.00771485  0.10954096     0.01960
H1479       H  0.54542188  0.48684609  0.09460025     0.14940
H1480       H  0.95354115  0.01274284  0.15384904     0.14940
C1481       C  0.94483692  0.01551303  0.09476739     0.36590
C1482       C  0.55522377  0.48453507  0.15300478     0.36500
N1483       N  0.92244078  0.02174071  0.08287672    -0.43750
N1484       N  0.57818873  0.47834416  0.16379302    -0.43750
C1485       C  0.99924790  0.99989272  0.40743511    -0.00160
C1486       C  0.52701097  0.50045320  0.39225830    -0.12040
C1487       C  0.52833618  0.50013779  0.36062603     0.02070
C1488       C  0.00119908  0.49943364  0.34351652    -0.00250
C1489       C  0.97338136  0.99883814  0.35916431    -0.11980
C1490       C  0.97225724  0.99897588  0.39079365     0.01960
H1491       H  0.54778109  0.50102522  0.40523969     0.14940
H1492       H  0.95230653  0.99820986  0.34674092     0.14940
C1493       C  0.94316639  0.99816514  0.40571221     0.36590
C1494       C  0.55796713  0.50049018  0.34679373     0.36500
N1495       N  0.91981663  0.99745207  0.41758139    -0.43750
N1496       N  0.58180794  0.50072485  0.33591236    -0.43750
C1497       C  0.50029189  0.34316867  0.25085024    -0.00160
C1498       C  0.51550960  0.35864463  0.22768247    -0.12040
C1499       C  0.51568473  0.39021997  0.22678435     0.02070
C1500       C  0.50081626  0.40673280  0.24964777    -0.00250
C1501       C  0.98564392  0.39125210  0.27287737    -0.11980
C1502       C  0.98544916  0.35964818  0.27375906     0.01960
H1503       H  0.52672654  0.34600139  0.20989937     0.14940
H1504       H  0.97443399  0.40389883  0.29065933     0.14940
C1505       C  0.97133176  0.34464266  0.29916131     0.36590
C1506       C  0.52979783  0.40508902  0.20133537     0.36500
N1507       N  0.96030969  0.33255156  0.31962982    -0.43750
N1508       N  0.54085478  0.41685514  0.18071113    -0.43750
C1509       C  0.49922394  0.09288065  0.24992127    -0.00160
C1510       C  0.52691626  0.10836361  0.25208210    -0.12040
C1511       C  0.52831133  0.13993914  0.25215734     0.02070
C1512       C  0.50140070  0.15712365  0.25002298    -0.00250
C1513       C  0.97370065  0.14164195  0.24785697    -0.11980
C1514       C  0.97231125  0.11005672  0.24774284     0.01960
H1515       H  0.54783414  0.09576600  0.25381101     0.14940
H1516       H  0.95278316  0.15424282  0.24614643     0.14940
C1517       C  0.94278928  0.09630448  0.24511843     0.36590
C1518       C  0.55786483  0.15366288  0.25456444     0.36500
N1519       N  0.91904938  0.08547666  0.24299820    -0.43750
N1520       N  0.58163164  0.16446800  0.25649390    -0.43750
O1521       O  0.52565257  0.49926806  0.79487262    -0.72950
O1522       O  0.52529951  0.00032666  0.70461104    -0.73930
O1523       O  0.52473218  0.04513106  0.75016013    -0.62550
O1524       O  0.52574292  0.45444513  0.74889573    -0.70960
O1525       O  0.97555885  0.45394432  0.75082703    -0.70510
O1526       O  0.97476438  0.04430431  0.74990706    -0.61770
O1527       O  0.97529220  0.99881956  0.70469461    -0.74280
O1528       O  0.97567826  0.49947957  0.79571085    -0.73060
Cu1529     Cu  0.52707562  0.99981338  0.74964951     1.04560
Cu1530     Cu  0.97356804  0.49911593  0.75028699     1.04330
C1531       C  0.50089395  0.49937427  0.80978561     0.93250
C1532       C  0.50039159  0.99950161  0.69020147     0.92390
C1533       C  0.49950403  0.05919186  0.74998484     0.84530
C1534       C  0.50073112  0.43996449  0.74974843     0.90800
O1535       O  0.52564134  0.24957328  0.70462295    -0.72950
O1536       O  0.52543149  0.25206028  0.79537416    -0.73930
O1537       O  0.52591943  0.20565248  0.75102326    -0.62550
O1538       O  0.52541140  0.29594145  0.74873814    -0.70960
O1539       O  0.97527089  0.29553526  0.75199239    -0.70510
O1540       O  0.97598520  0.20492007  0.74892333    -0.61770
O1541       O  0.97531901  0.24862463  0.79546931    -0.74280
O1542       O  0.97545795  0.25187739  0.70498333    -0.73060
Cu1543     Cu  0.52735980  0.25081807  0.74994324     1.04560
Cu1544     Cu  0.97373446  0.25022544  0.75031173     1.04330
C1545       C  0.50050608  0.25080373  0.69058488     0.93250
C1546       C  0.50032746  0.25025037  0.80966960     0.92390
C1547       C  0.50116646  0.19081414  0.74999116     0.84530
C1548       C  0.50029562  0.30995607  0.75057686     0.90800
O1549       O  0.77556808  0.99832399  0.79572181    -0.72950
O1550       O  0.77597787  0.00139459  0.70507975    -0.73930
O1551       O  0.77536280  0.04512410  0.75209019    -0.62550
O1552       O  0.77613712  0.45468057  0.74900990    -0.70960
O1553       O  0.72609642  0.45408231  0.75070129    -0.70510
O1554       O  0.72522703  0.04469736  0.74966039    -0.61770
O1555       O  0.72578566  0.99877878  0.70501603    -0.74200
O1556       O  0.72542834  0.99994391  0.79564553    -0.73060
Cu1557     Cu  0.77751748  0.99991468  0.75046555     1.04560
Cu1558     Cu  0.72387155  0.99936395  0.75027532     1.04330
C1559       C  0.75042031  0.99884920  0.80999938     0.93250
C1560       C  0.75094187  0.00013399  0.69084974     0.92390
C1561       C  0.75019715  0.05917615  0.75112195     0.84530
C1562       C  0.75126249  0.43997352  0.74954839     0.90800
O1563       O  0.77561126  0.24974526  0.70392402    -0.72950
O1564       O  0.77449135  0.24949030  0.79439093    -0.73930
O1565       O  0.77508141  0.20392608  0.74934769    -0.62550
O1566       O  0.77467455  0.29466357  0.74929818    -0.70960
O1567       O  0.72460357  0.29407866  0.74909203    -0.70510
O1568       O  0.72489424  0.20362326  0.74844233    -0.61770
O1569       O  0.72440826  0.24871821  0.79439154    -0.74280
O1570       O  0.72538355  0.24883587  0.70344291    -0.73060
Cu1571     Cu  0.77670430  0.24940547  0.74923510     1.04560
Cu1572     Cu  0.72306527  0.24878726  0.74883286     1.04330
C1573       C  0.75070106  0.24946705  0.68945224     0.93250
C1574       C  0.74942313  0.24957216  0.80879132     0.92390
C1575       C  0.75001525  0.18949921  0.74875042     0.84530
C1576       C  0.74949300  0.30876934  0.74943757     0.90800
O1577       O  0.99825145  0.47499486  0.95485890    -0.72950
O1578       O  0.00014242  0.47525867  0.54538631    -0.73930
O1579       O  0.95381150  0.47506646  0.50135093    -0.62550
O1580       O  0.54452055  0.47537436  0.99901938    -0.70960
O1581       O  0.54420940  0.02543363  0.00117617    -0.70510
O1582       O  0.95362095  0.02510736  0.49911318    -0.61770
O1583       O  0.99757545  0.02536812  0.54535143    -0.74280
O1584       O  0.99993054  0.02515316  0.95471070    -0.73060
Cu1585     Cu  0.99917454  0.47340674  0.50013769     1.04560
Cu1586     Cu  0.99885411  0.02703213  0.00005355     1.04330
C1587       C  0.99907371  0.00003063  0.94059932     0.93250
C1588       C  0.99874770  0.00031360  0.55955494     0.92390
C1589       C  0.93939368  0.00001907  0.50049951     0.84530
C1590       C  0.55867736  0.00051160  0.00032763     0.90800
O1591       O  0.50017079  0.22655778  0.95419321    -0.72950
O1592       O  0.50015015  0.22479252  0.54483952    -0.73930
O1593       O  0.95489207  0.22462187  0.49947434    -0.62550
O1594       O  0.54554384  0.22666597  0.99944349    -0.70960
O1595       O  0.54480337  0.27663571  0.00030876    -0.70510
O1596       O  0.95409524  0.27476563  0.00081944    -0.61770
O1597       O  0.49947904  0.27473830  0.54588059    -0.74280
O1598       O  0.49953442  0.27659143  0.95512581    -0.73060
Cu1599     Cu  0.50022394  0.22392463  0.49946098     1.04560
Cu1600     Cu  0.49942496  0.27743025  0.00056376     1.04330
C1601       C  0.49998904  0.25184607  0.94029016     0.93250
C1602       C  0.49995269  0.24945089  0.55980603     0.92390
C1603       C  0.94029810  0.24942487  0.00016961     0.84530
C1604       C  0.55960243  0.25191788  0.99977766     0.90800
O1605       O  0.75016587  0.47512114  0.95515052    -0.72950
O1606       O  0.74846309  0.47649268  0.54595375    -0.73930
O1607       O  0.70383711  0.47550162  0.49961487    -0.62550
O1608       O  0.79445817  0.47594683  0.00125342    -0.70960
O1609       O  0.79417137  0.02594500  0.99853981    -0.70510
O1610       O  0.70348760  0.02557638  0.50101879    -0.61770
O1611       O  0.74982762  0.02638369  0.54508200    -0.74280
O1612       O  0.74765306  0.02516367  0.95457325    -0.73060
Cu1613     Cu  0.74920763  0.47400764  0.50054559     1.04560
Cu1614     Cu  0.74879181  0.02750598  0.99979804     1.04330
C1615       C  0.74873862  0.99997748  0.94057520     0.93250
C1616       C  0.74938163  0.00170977  0.56000780     0.92390
C1617       C  0.68935378  0.00042051  0.50008331     0.84530
C1618       C  0.80864917  0.00104133  0.99966786     0.90800
O1619       O  0.74847564  0.22566787  0.95322124    -0.72950
O1620       O  0.75184056  0.22382465  0.54381299    -0.73930
O1621       O  0.70523181  0.22495818  0.50022195    -0.62550
O1622       O  0.79579793  0.22433734  0.99669586    -0.70960
O1623       O  0.79645670  0.27443688  0.99922398    -0.70510
O1624       O  0.70560226  0.27494230  0.00011401    -0.61770
O1625       O  0.75146371  0.27382733  0.54491384    -0.74280
O1626       O  0.75079514  0.27576145  0.95419226    -0.73060
Cu1627     Cu  0.75037884  0.22296235  0.49844183     1.04560
Cu1628     Cu  0.75110617  0.27650887  0.99962038     1.04330
C1629       C  0.74904728  0.25101917  0.93948250     0.93250
C1630       C  0.75166625  0.24850494  0.55876137     0.92390
C1631       C  0.69099224  0.24998448  0.50060725     0.84530
C1632       C  0.81034556  0.24924319  0.99779903     0.90800
C1633       C  0.90712150  0.24883817  0.00001939    -0.00160
C1634       C  0.89212797  0.24448982  0.97251863    -0.12040
C1635       C  0.86049422  0.24436108  0.97134233     0.02070
C1636       C  0.84356674  0.24890601  0.99800785    -0.00250
C1637       C  0.85859540  0.25302079  0.52556692    -0.11980
C1638       C  0.89023879  0.25275619  0.52679006     0.01960
H1639       H  0.90517576  0.24133173  0.95194442     0.14940
H1640       H  0.84557258  0.25611005  0.54616461     0.14940
C1641       C  0.90494163  0.25570249  0.55574030     0.36590
C1642       C  0.84597935  0.23976620  0.94254832     0.36500
N1643       N  0.91676939  0.25778834  0.57893973    -0.43750
N1644       N  0.83464572  0.23591056  0.91933860    -0.43750
C1645       C  0.65737137  0.25020095  0.00114194    -0.00160
C1646       C  0.64218380  0.27609727  0.99100332    -0.12040
C1647       C  0.61054926  0.27734158  0.99030434     0.02070
C1648       C  0.59322562  0.25219701  0.99997192    -0.00250
C1649       C  0.60842451  0.22638379  0.51028606    -0.11980
C1650       C  0.64002700  0.22518344  0.51111590     0.01960
H1651       H  0.65507746  0.29542283  0.98309360     0.14940
H1652       H  0.59554576  0.20704744  0.51820232     0.14940
C1653       C  0.65372662  0.19821135  0.52318532     0.36590
C1654       C  0.59679283  0.30450247  0.97876802     0.36500
N1655       N  0.66447639  0.17650289  0.53289607    -0.43750
N1656       N  0.58603511  0.32643094  0.96957880    -0.43750
C1657       C  0.90596411  0.00001700  0.50079278    -0.00160
C1658       C  0.89065902  0.02154114  0.98333477    -0.12040
C1659       C  0.85904017  0.02209022  0.98231329     0.02070
C1660       C  0.84209300  0.00111638  0.99950168    -0.00250
C1661       C  0.85740120  0.47967681  0.51708045    -0.11980
C1662       C  0.88903059  0.47903800  0.51798519     0.01960
H1663       H  0.90347294  0.03756891  0.96984078     0.14940
H1664       H  0.84458919  0.46370321  0.53064024     0.14940
C1665       C  0.90343127  0.45764175  0.53789486     0.36590
C1666       C  0.84468264  0.04335030  0.96223302     0.36500
N1667       N  0.91497383  0.44064188  0.55399444    -0.43750
N1668       N  0.83319863  0.06024305  0.94597991    -0.43750
C1669       C  0.65595384  0.00022314  0.49971626    -0.00160
C1670       C  0.64026791  0.02017847  0.51872862    -0.12040
C1671       C  0.60861412  0.02043334  0.51952046     0.02070
C1672       C  0.59209250  0.00070265  0.00067454    -0.00250
C1673       C  0.60778671  0.48076999  0.98162968    -0.11980
C1674       C  0.63944598  0.48050592  0.98085469     0.01960
H1675       H  0.65280150  0.03517251  0.53350469     0.14940
H1676       H  0.59525983  0.46579386  0.96683037     0.14940
C1677       C  0.65439131  0.46094568  0.95940489     0.36590
C1678       C  0.59370295  0.03999994  0.54098708     0.36500
N1679       N  0.66639316  0.44544748  0.94208031    -0.43750
N1680       N  0.58174091  0.05550606  0.55833172    -0.43750
C1681       C  0.75119084  0.24957718  0.65619868    -0.00160
C1682       C  0.73856794  0.22507799  0.64076191    -0.12040
C1683       C  0.73894340  0.22386112  0.60915170     0.02070
C1684       C  0.75162685  0.24801515  0.59232992    -0.00250
C1685       C  0.76402257  0.27272662  0.60801074    -0.11980
C1686       C  0.76415892  0.27353537  0.63966799     0.01960
H1687       H  0.72867162  0.20657735  0.65353898     0.14940
H1688       H  0.77385012  0.29145130  0.59550617     0.14940
C1689       C  0.77682948  0.29956744  0.65470479     0.36590
C1690       C  0.72553635  0.19782190  0.59482736     0.36500
N1691       N  0.78690625  0.32045638  0.66675801    -0.43750
N1692       N  0.71489709  0.17677549  0.58356445    -0.43750
C1693       C  0.74935547  0.25078392  0.84235436    -0.00160
C1694       C  0.72466541  0.23849875  0.85833917    -0.12040
C1695       C  0.72400133  0.23859314  0.89002333     0.02070
C1696       C  0.74807117  0.25164264  0.90623338    -0.00250
C1697       C  0.77208268  0.26500886  0.89046537    -0.11980
C1698       C  0.77325181  0.26426903  0.85885940     0.01960
H1699       H  0.70600331  0.22840960  0.84609654     0.14940
H1700       H  0.79031589  0.27557315  0.90295252     0.14940
C1701       C  0.79910226  0.27795157  0.84419163     0.36590
C1702       C  0.69793038  0.22621198  0.90545043     0.36500
N1703       N  0.81994245  0.28879527  0.83255302    -0.43750
N1704       N  0.67698513  0.21651891  0.91789277    -0.43750
C1705       C  0.74997815  0.00206739  0.59373852    -0.00160
C1706       C  0.74578036  0.47466106  0.60942854    -0.12040
C1707       C  0.74616042  0.47360890  0.64106185     0.02070
C1708       C  0.75099247  0.00022960  0.65766185    -0.00250
C1709       C  0.75543859  0.02753899  0.64242698    -0.11980
C1710       C  0.75485802  0.02881355  0.61079083     0.01960
H1711       H  0.74207638  0.45387840  0.59703299     0.14940
H1712       H  0.75910797  0.04802772  0.65536356     0.14940
C1713       C  0.75950262  0.05795216  0.59685738     0.36590
C1714       C  0.74202947  0.44491267  0.65607127     0.36500
N1715       N  0.76318228  0.08140074  0.58588011    -0.43750
N1716       N  0.73881373  0.42194647  0.66815359    -0.43750
C1717       C  0.74856211  0.99959255  0.90722038    -0.00160
C1718       C  0.76904531  0.48086006  0.89190464    -0.12040
C1719       C  0.77021117  0.48038798  0.86026560     0.02070
C1720       C  0.75013729  0.99850988  0.84341191    -0.00250
C1721       C  0.72917430  0.01670472  0.85877914    -0.11980
C1722       C  0.72841300  0.01759993  0.89040586     0.01960
H1723       H  0.78447897  0.46685450  0.90471862     0.14940
H1724       H  0.71356963  0.03057126  0.84602462     0.14940
C1725       C  0.70606783  0.03636799  0.90504026     0.36590
C1726       C  0.79151571  0.46038900  0.84572473     0.36500
N1727       N  0.68813662  0.05134847  0.91679518    -0.43750
N1728       N  0.80856939  0.44434395  0.83407743    -0.43750
C1729       C  0.74939799  0.34233043  0.74972281    -0.00160
C1730       C  0.77511840  0.35778432  0.73912904    -0.12040
C1731       C  0.77629536  0.38937060  0.73860758     0.02070
C1732       C  0.75134900  0.40639403  0.74916335    -0.00250
C1733       C  0.72563606  0.39092364  0.75978172    -0.11980
C1734       C  0.72444614  0.35933748  0.76025676     0.01960
H1735       H  0.79436378  0.34513034  0.73073735     0.14940
H1736       H  0.70640255  0.40355361  0.76823809     0.14940
C1737       C  0.69767227  0.34524024  0.77270274     0.36590
C1738       C  0.80309050  0.40342769  0.72617370     0.36500
N1739       N  0.67619166  0.33406171  0.78274589    -0.43750
N1740       N  0.82459331  0.41457192  0.71614199    -0.43750
C1741       C  0.75000292  0.09249022  0.75123152    -0.00160
C1742       C  0.73182602  0.10770567  0.73029368    -0.12040
C1743       C  0.73167188  0.13928393  0.72893793     0.02070
C1744       C  0.75000989  0.15616800  0.74883502    -0.00250
C1745       C  0.76808103  0.14093928  0.76988356    -0.11980
C1746       C  0.76793045  0.10935212  0.77148039     0.01960
H1747       H  0.71810279  0.09485253  0.71458542     0.14940
H1748       H  0.78169695  0.15379029  0.78568053     0.14940
C1749       C  0.78483642  0.09483713  0.79524873     0.36590
C1750       C  0.71335192  0.15369850  0.70619635     0.36500
N1751       N  0.79804269  0.08316130  0.81450433    -0.43750
N1752       N  0.69860547  0.16504360  0.68789536    -0.43750
C1753       C  0.50015532  0.24902554  0.59346158    -0.00160
C1754       C  0.99105890  0.27516128  0.60914212    -0.12040
C1755       C  0.99091363  0.27611808  0.64077726     0.02070
C1756       C  0.50037538  0.25076810  0.65736179    -0.00250
C1757       C  0.50973597  0.22477024  0.64204374    -0.11980
C1758       C  0.50945969  0.22350543  0.61040288     0.01960
H1759       H  0.98381482  0.29494117  0.59670050     0.14940
H1760       H  0.51699445  0.20524552  0.65491191     0.14940
C1761       C  0.51931620  0.19583692  0.59624905     0.36590
C1762       C  0.98176363  0.30360888  0.65575524     0.36500
N1763       N  0.52713504  0.17355328  0.58506346    -0.43750
N1764       N  0.97451180  0.32565672  0.66775755    -0.43750
C1765       C  0.50014566  0.25030679  0.84294733    -0.00160
C1766       C  0.51486661  0.27377447  0.85821449    -0.12040
C1767       C  0.51462020  0.27516458  0.88984029     0.02070
C1768       C  0.50009878  0.25218159  0.90677564    -0.00250
C1769       C  0.98563914  0.22851286  0.89131214    -0.11980
C1770       C  0.98522940  0.22761671  0.85968071     0.01960
H1771       H  0.52619520  0.29135013  0.84533654     0.14940
H1772       H  0.97433649  0.21077685  0.90397261     0.14940
C1773       C  0.97018007  0.20271886  0.84490293     0.36590
C1774       C  0.53000002  0.30010813  0.90411179     0.36500
N1775       N  0.95815972  0.18278294  0.83301205    -0.43750
N1776       N  0.54222833  0.32031034  0.91530104    -0.43750
C1777       C  0.99879699  0.00026789  0.59271647    -0.00160
C1778       C  0.52542469  0.49250717  0.60770357    -0.12040
C1779       C  0.52671378  0.49237406  0.63929881     0.02070
C1780       C  0.00054524  0.99953491  0.65655243    -0.00250
C1781       C  0.97377449  0.00705642  0.64117789    -0.11980
C1782       C  0.97282013  0.00771485  0.60954096     0.01960
H1783       H  0.54542188  0.48684613  0.59460025     0.14940
H1784       H  0.95354116  0.01274282  0.65384904     0.14940
C1785       C  0.94483693  0.01551300  0.59476739     0.36590
C1786       C  0.55522377  0.48453511  0.65300479     0.36500
N1787       N  0.92244078  0.02174067  0.58287672    -0.43750
N1788       N  0.57818873  0.47834421  0.66379303    -0.43750
C1789       C  0.99924791  0.99989272  0.90743511    -0.00160
C1790       C  0.52701095  0.50045322  0.89225830    -0.12040
C1791       C  0.52833616  0.50013781  0.86062603     0.02070
C1792       C  0.00119911  0.49943365  0.84351652    -0.00250
C1793       C  0.97338138  0.99883812  0.85916431    -0.11980
C1794       C  0.97225725  0.99897586  0.89079365     0.01960
H1795       H  0.54778107  0.50102526  0.90523969     0.14940
H1796       H  0.95230655  0.99820983  0.84674092     0.14940
C1797       C  0.94316640  0.99816510  0.90571221     0.36590
C1798       C  0.55796711  0.50049023  0.84679373     0.36500
N1799       N  0.91981664  0.99745201  0.91758138    -0.43750
N1800       N  0.58180792  0.50072492  0.83591235    -0.43750
C1801       C  0.50029188  0.34316868  0.75085023    -0.00160
C1802       C  0.51550964  0.35864464  0.72768250    -0.12040
C1803       C  0.51568477  0.39021997  0.72678437     0.02070
C1804       C  0.50081625  0.40673281  0.74964777    -0.00250
C1805       C  0.98564395  0.39125211  0.77287737    -0.11980
C1806       C  0.98544918  0.35964820  0.77375906     0.01960
H1807       H  0.52672661  0.34600140  0.70989942     0.14940
H1808       H  0.97443402  0.40389884  0.79065933     0.14940
C1809       C  0.97133179  0.34464268  0.79916131     0.36590
C1810       C  0.52979792  0.40508903  0.70133543     0.36500
N1811       N  0.96030972  0.33255157  0.81962982    -0.43750
N1812       N  0.54085491  0.41685515  0.68071120    -0.43750
C1813       C  0.49922392  0.09288066  0.74992128    -0.00160
C1814       C  0.52691624  0.10836362  0.75208211    -0.12040
C1815       C  0.52831131  0.13993915  0.75215735     0.02070
C1816       C  0.50140068  0.15712366  0.75002299    -0.00250
C1817       C  0.97370067  0.14164196  0.74785697    -0.11980
C1818       C  0.97231127  0.11005673  0.74774284     0.01960
H1819       H  0.54783412  0.09576601  0.75381103     0.14940
H1820       H  0.95278318  0.15424283  0.74614643     0.14940
C1821       C  0.94278930  0.09630448  0.74511843     0.36590
C1822       C  0.55786481  0.15366289  0.75456445     0.36500
N1823       N  0.91904940  0.08547666  0.74299820    -0.43750
N1824       N  0.58163162  0.16446801  0.75649391    -0.43750
O1825       O  0.52565259  0.99926805  0.29487262    -0.72950
O1826       O  0.52529952  0.50032664  0.20461103    -0.73930
O1827       O  0.52473220  0.54513105  0.25016012    -0.62550
O1828       O  0.52574294  0.95444512  0.24889573    -0.70960
O1829       O  0.97555883  0.95394430  0.25082704    -0.70510
O1830       O  0.97476436  0.54430430  0.24990705    -0.61770
O1831       O  0.97529218  0.49881955  0.20469460    -0.74280
O1832       O  0.97567823  0.99947956  0.29571086    -0.73060
Cu1833     Cu  0.52707564  0.49981337  0.24964951     1.04560
Cu1834     Cu  0.97356801  0.99911592  0.25028699     1.04330
C1835       C  0.50089397  0.99937426  0.30978561     0.93250
C1836       C  0.50039160  0.49950160  0.19020147     0.92390
C1837       C  0.49950405  0.55919185  0.24998483     0.84530
C1838       C  0.50073113  0.93996448  0.24974843     0.90800
O1839       O  0.52564136  0.74957328  0.20462295    -0.72950
O1840       O  0.52543152  0.75206027  0.29537416    -0.73930
O1841       O  0.52591946  0.70565247  0.25102325    -0.62550
O1842       O  0.52541142  0.79594144  0.24873814    -0.70960
O1843       O  0.97527088  0.79553525  0.25199239    -0.70510
O1844       O  0.97598519  0.70492006  0.24892333    -0.61770
O1845       O  0.97531899  0.74862461  0.29546931    -0.74280
O1846       O  0.97545795  0.75187739  0.20498333    -0.73060
Cu1847     Cu  0.52735982  0.75081806  0.24994324     1.04560
Cu1848     Cu  0.97373445  0.75022543  0.25031172     1.04330
C1849       C  0.50050610  0.75080373  0.19058488     0.93250
C1850       C  0.50032749  0.75025036  0.30966960     0.92390
C1851       C  0.50116649  0.69081413  0.24999115     0.84530
C1852       C  0.50029564  0.80995606  0.25057686     0.90800
O1853       O  0.77556808  0.49832398  0.29572181    -0.72950
O1854       O  0.77597787  0.50139457  0.20507975    -0.73930
O1855       O  0.77536279  0.54512408  0.25209019    -0.62550
O1856       O  0.77613713  0.95468055  0.24900990    -0.70960
O1857       O  0.72609643  0.95408229  0.25070129    -0.70510
O1858       O  0.72522703  0.54469735  0.24966039    -0.61770
O1859       O  0.72578566  0.49877876  0.20501603    -0.74200
O1860       O  0.72542834  0.49994390  0.29564553    -0.73060
Cu1861     Cu  0.77751748  0.49991467  0.25046555     1.04560
Cu1862     Cu  0.72387155  0.49936393  0.25027532     1.04330
C1863       C  0.75042030  0.49884919  0.30999938     0.93250
C1864       C  0.75094186  0.50013397  0.19084974     0.92390
C1865       C  0.75019714  0.55917614  0.25112194     0.84530
C1866       C  0.75126251  0.93997350  0.24954840     0.90800
O1867       O  0.77561126  0.74974524  0.20392402    -0.72950
O1868       O  0.77449135  0.74949029  0.29439094    -0.73930
O1869       O  0.77508141  0.70392606  0.24934769    -0.62550
O1870       O  0.77467456  0.79466356  0.24929818    -0.70960
O1871       O  0.72460357  0.79407865  0.24909203    -0.70510
O1872       O  0.72489423  0.70362325  0.24844233    -0.61770
O1873       O  0.72440825  0.74871820  0.29439154    -0.74280
O1874       O  0.72538355  0.74883586  0.20344291    -0.73060
Cu1875     Cu  0.77670430  0.74940545  0.24923510     1.04560
Cu1876     Cu  0.72306527  0.74878725  0.24883285     1.04330
C1877       C  0.75070106  0.74946703  0.18945224     0.93250
C1878       C  0.74942312  0.74957215  0.30879132     0.92390
C1879       C  0.75001524  0.68949920  0.24875042     0.84530
C1880       C  0.74949301  0.80876933  0.24943757     0.90800
O1881       O  0.99825145  0.97499487  0.45485891    -0.72950
O1882       O  0.00014241  0.97525867  0.04538631    -0.73930
O1883       O  0.95381149  0.97506646  0.00135092    -0.62550
O1884       O  0.54452055  0.97537438  0.49901938    -0.70960
O1885       O  0.54420941  0.52543363  0.50117617    -0.70510
O1886       O  0.95362094  0.52510735  0.99911317    -0.61770
O1887       O  0.99757544  0.52536811  0.04535143    -0.74280
O1888       O  0.99993054  0.52515316  0.45471070    -0.73060
Cu1889     Cu  0.99917454  0.97340674  0.00013769     1.04560
Cu1890     Cu  0.99885412  0.52703214  0.50005355     1.04330
C1891       C  0.99907371  0.50003063  0.44059932     0.93250
C1892       C  0.99874768  0.50031359  0.05955494     0.92390
C1893       C  0.93939368  0.50001907  0.00049950     0.84530
C1894       C  0.55867737  0.50051160  0.50032764     0.90800
O1895       O  0.50017079  0.72655778  0.45419322    -0.72950
O1896       O  0.50015017  0.72479253  0.04483952    -0.73930
O1897       O  0.95489209  0.72462188  0.99947433    -0.62550
O1898       O  0.54554383  0.72666597  0.49944349    -0.70960
O1899       O  0.54480335  0.77663571  0.50030877    -0.70510
O1900       O  0.95409523  0.77476564  0.50081943    -0.61770
O1901       O  0.49947906  0.77473831  0.04588059    -0.74280
O1902       O  0.49953441  0.77659143  0.45512581    -0.73060
Cu1903     Cu  0.50022395  0.72392465  0.99946098     1.04560
Cu1904     Cu  0.49942495  0.77743025  0.50056376     1.04330
C1905       C  0.49998904  0.75184606  0.44029016     0.93250
C1906       C  0.49995271  0.74945090  0.05980603     0.92390
C1907       C  0.94029809  0.74942487  0.50016961     0.84530
C1908       C  0.55960241  0.75191788  0.49977767     0.90800
O1909       O  0.75016587  0.97512116  0.45515053    -0.72950
O1910       O  0.74846309  0.97649267  0.04595374    -0.73930
O1911       O  0.70383711  0.97550161  0.99961487    -0.62550
O1912       O  0.79445817  0.97594685  0.50125343    -0.70960
O1913       O  0.79417138  0.52594500  0.49853981    -0.70510
O1914       O  0.70348759  0.52557636  0.00101880    -0.61770
O1915       O  0.74982762  0.52638367  0.04508199    -0.74280
O1916       O  0.74765307  0.52516367  0.45457325    -0.73060
Cu1917     Cu  0.74920762  0.97400763  0.00054559     1.04560
Cu1918     Cu  0.74879182  0.52750599  0.49979803     1.04330
C1919       C  0.74873862  0.49997748  0.44057520     0.93250
C1920       C  0.74938163  0.50170975  0.06000780     0.92390
C1921       C  0.68935377  0.50042049  0.00008332     0.84530
C1922       C  0.80864918  0.50104133  0.49966786     0.90800
O1923       O  0.74847563  0.72566788  0.45322124    -0.72950
O1924       O  0.75184057  0.72382464  0.04381298    -0.73930
O1925       O  0.70523182  0.72495818  0.00022195    -0.62550
O1926       O  0.79579791  0.72433735  0.49669586    -0.70960
O1927       O  0.79645668  0.77443689  0.49922397    -0.70510
O1928       O  0.70560225  0.77494231  0.50011401    -0.61770
O1929       O  0.75146372  0.77382732  0.04491385    -0.74280
O1930       O  0.75079511  0.77576146  0.45419226    -0.73060
Cu1931     Cu  0.75037885  0.72296234  0.99844183     1.04560
Cu1932     Cu  0.75110616  0.77650888  0.49962038     1.04330
C1933       C  0.74904726  0.75101917  0.43948249     0.93250
C1934       C  0.75166627  0.74850492  0.05876137     0.92390
C1935       C  0.69099225  0.74998448  0.00060725     0.84530
C1936       C  0.81034555  0.74924320  0.49779902     0.90800
C1937       C  0.90712149  0.74883818  0.50001939    -0.00160
C1938       C  0.89212795  0.74448988  0.47251862    -0.12040
C1939       C  0.86049420  0.74436114  0.47134232     0.02070
C1940       C  0.84356673  0.74890602  0.49800784    -0.00250
C1941       C  0.85859542  0.75302078  0.02556692    -0.11980
C1942       C  0.89023881  0.75275619  0.02679006     0.01960
H1943       H  0.90517575  0.74133184  0.45194440     0.14940
H1944       H  0.84557260  0.75611004  0.04616461     0.14940
C1945       C  0.90494164  0.75570248  0.05574030     0.36590
C1946       C  0.84597934  0.73976631  0.44254830     0.36500
N1947       N  0.91676941  0.75778832  0.07893973    -0.43750
N1948       N  0.83464572  0.73591070  0.41933857    -0.43750
C1949       C  0.65737136  0.75020095  0.50114195    -0.00160
C1950       C  0.64218379  0.77609728  0.49100333    -0.12040
C1951       C  0.61054924  0.77734159  0.49030435     0.02070
C1952       C  0.59322560  0.75219701  0.49997193    -0.00250
C1953       C  0.60842453  0.72638381  0.01028607    -0.11980
C1954       C  0.64002701  0.72518346  0.01111591     0.01960
H1955       H  0.65507744  0.79542284  0.48309361     0.14940
H1956       H  0.59554577  0.70704746  0.01820235     0.14940
C1957       C  0.65372663  0.69821137  0.02318535     0.36590
C1958       C  0.59679281  0.80450247  0.47876803     0.36500
N1959       N  0.66447639  0.67650292  0.03289612    -0.43750
N1960       N  0.58603510  0.82643095  0.46957882    -0.43750
C1961       C  0.90596411  0.50001700  0.00079277    -0.00160
C1962       C  0.89065902  0.52154114  0.48333478    -0.12040
C1963       C  0.85904017  0.52209022  0.48231330     0.02070
C1964       C  0.84209301  0.50111638  0.49950168    -0.00250
C1965       C  0.85740120  0.97967682  0.01708046    -0.11980
C1966       C  0.88903059  0.97903801  0.01798520     0.01960
H1967       H  0.90347295  0.53756892  0.46984080     0.14940
H1968       H  0.84458919  0.96370322  0.03064025     0.14940
C1969       C  0.90343126  0.95764177  0.03789487     0.36590
C1970       C  0.84468265  0.54335032  0.46223304     0.36500
N1971       N  0.91497382  0.94064190  0.05399446    -0.43750
N1972       N  0.83319865  0.56024307  0.44597993    -0.43750
C1973       C  0.65595384  0.50022311  0.99971627    -0.00160
C1974       C  0.64026791  0.52017844  0.01872862    -0.12040
C1975       C  0.60861412  0.52043332  0.01952046     0.02070
C1976       C  0.59209250  0.50070265  0.50067454    -0.00250
C1977       C  0.60778672  0.98077002  0.48162968    -0.11980
C1978       C  0.63944599  0.98050595  0.48085468     0.01960
H1979       H  0.65280150  0.53517249  0.03350469     0.14940
H1980       H  0.59525983  0.96579389  0.46683036     0.14940
C1981       C  0.65439131  0.96094572  0.45940487     0.36590
C1982       C  0.59370295  0.53999993  0.04098707     0.36500
N1983       N  0.66639316  0.94544753  0.44208029    -0.43750
N1984       N  0.58174091  0.55550605  0.05833171    -0.43750
C1985       C  0.75119086  0.74957717  0.15619868    -0.00160
C1986       C  0.73856798  0.72507796  0.14076191    -0.12040
C1987       C  0.73894344  0.72386110  0.10915170     0.02070
C1988       C  0.75162687  0.74801513  0.09232992    -0.00250
C1989       C  0.76402257  0.77272662  0.10801074    -0.11980
C1990       C  0.76415892  0.77353536  0.13966799     0.01960
H1991       H  0.72867167  0.70657732  0.15353897     0.14940
H1992       H  0.77385010  0.79145130  0.09550617     0.14940
C1993       C  0.77682945  0.79956744  0.15470479     0.36590
C1994       C  0.72553641  0.69782186  0.09482736     0.36500
N1995       N  0.78690621  0.82045639  0.16675802    -0.43750
N1996       N  0.71489717  0.67677544  0.08356445    -0.43750
C1997       C  0.74935545  0.75078392  0.34235436    -0.00160
C1998       C  0.72466541  0.73849873  0.35833917    -0.12040
C1999       C  0.72400132  0.73859312  0.39002333     0.02070
C2000       C  0.74807115  0.75164264  0.40623338    -0.00250
C2001       C  0.77208264  0.76500889  0.39046537    -0.11980
C2002       C  0.77325178  0.76426905  0.35885940     0.01960
H2003       H  0.70600332  0.72840956  0.34609654     0.14940
H2004       H  0.79031584  0.77557320  0.40295252     0.14940
C2005       C  0.79910222  0.77795162  0.34419163     0.36590
C2006       C  0.69793038  0.72621194  0.40545043     0.36500
N2007       N  0.81994240  0.78879533  0.33255301    -0.43750
N2008       N  0.67698514  0.71651885  0.41789277    -0.43750
C2009       C  0.74997815  0.50206737  0.09373851    -0.00160
C2010       C  0.74578038  0.97466105  0.10942854    -0.12040
C2011       C  0.74616044  0.97360888  0.14106185     0.02070
C2012       C  0.75099246  0.50022958  0.15766185    -0.00250
C2013       C  0.75543858  0.52753898  0.14242698    -0.11980
C2014       C  0.75485801  0.52881353  0.11079083     0.01960
H2015       H  0.74207641  0.95387839  0.09703299     0.14940
H2016       H  0.75910795  0.54802771  0.15536356     0.14940
C2017       C  0.75950260  0.55795214  0.09685738     0.36590
C2018       C  0.74202950  0.94491265  0.15607127     0.36500
N2019       N  0.76318225  0.58140072  0.08588011    -0.43750
N2020       N  0.73881378  0.92194644  0.16815358    -0.43750
C2021       C  0.74856212  0.49959255  0.40722038    -0.00160
C2022       C  0.76904532  0.98086007  0.39190465    -0.12040
C2023       C  0.77021118  0.98038799  0.36026560     0.02070
C2024       C  0.75013729  0.49850987  0.34341191    -0.00250
C2025       C  0.72917430  0.51670471  0.35877914    -0.11980
C2026       C  0.72841300  0.51759992  0.39040586     0.01960
H2027       H  0.78447897  0.96685450  0.40471863     0.14940
H2028       H  0.71356963  0.53057125  0.34602462     0.14940
C2029       C  0.70606783  0.53636798  0.40504026     0.36590
C2030       C  0.79151572  0.96038900  0.34572474     0.36500
N2031       N  0.68813662  0.55134846  0.41679518    -0.43750
N2032       N  0.80856940  0.94434394  0.33407745    -0.43750
C2033       C  0.74939800  0.84233042  0.24972281    -0.00160
C2034       C  0.77511841  0.85778431  0.23912903    -0.12040
C2035       C  0.77629536  0.88937058  0.23860757     0.02070
C2036       C  0.75134901  0.90639401  0.24916336    -0.00250
C2037       C  0.72563607  0.89092363  0.25978174    -0.11980
C2038       C  0.72444615  0.85933747  0.26025678     0.01960
H2039       H  0.79436378  0.84513032  0.23073733     0.14940
H2040       H  0.70640257  0.90355360  0.26823812     0.14940
C2041       C  0.69767229  0.84524023  0.27270277     0.36590
C2042       C  0.80309050  0.90342767  0.22617367     0.36500
N2043       N  0.67619169  0.83406169  0.28274595    -0.43750
N2044       N  0.82459330  0.91457191  0.21614195    -0.43750
C2045       C  0.75000291  0.59249021  0.25123152    -0.00160
C2046       C  0.73182600  0.60770566  0.23029369    -0.12040
C2047       C  0.73167186  0.63928392  0.22893794     0.02070
C2048       C  0.75000988  0.65616799  0.24883502    -0.00250
C2049       C  0.76808103  0.64093927  0.26988355    -0.11980
C2050       C  0.76793046  0.60935211  0.27148038     0.01960
H2051       H  0.71810276  0.59485252  0.21458543     0.14940
H2052       H  0.78169696  0.65379027  0.28568051     0.14940
C2053       C  0.78483645  0.59483712  0.29524870     0.36590
C2054       C  0.71335189  0.65369849  0.20619637     0.36500
N2055       N  0.79804274  0.58316129  0.31450428    -0.43750
N2056       N  0.69860544  0.66504360  0.18789539    -0.43750
C2057       C  0.50015534  0.74902555  0.09346158    -0.00160
C2058       C  0.99105892  0.77516128  0.10914212    -0.12040
C2059       C  0.99091364  0.77611808  0.14077726     0.02070
C2060       C  0.50037541  0.75076811  0.15736179    -0.00250
C2061       C  0.50973603  0.72477025  0.14204373    -0.11980
C2062       C  0.50945975  0.72350545  0.11040288     0.01960
H2063       H  0.98381484  0.79494118  0.09670050     0.14940
H2064       H  0.51699455  0.70524555  0.15491190     0.14940
C2065       C  0.51931631  0.69583696  0.09624903     0.36590
C2066       C  0.98176366  0.80360889  0.15575524     0.36500
N2067       N  0.52713518  0.67355333  0.08506344    -0.43750
N2068       N  0.97451183  0.82565673  0.16775755    -0.43750
C2069       C  0.50014568  0.75030678  0.34294733    -0.00160
C2070       C  0.51486663  0.77377446  0.35821449    -0.12040
C2071       C  0.51462021  0.77516458  0.38984029     0.02070
C2072       C  0.50009879  0.75218159  0.40677563    -0.00250
C2073       C  0.98563910  0.72851286  0.39131214    -0.11980
C2074       C  0.98522936  0.72761671  0.35968072     0.01960
H2075       H  0.52619521  0.79135012  0.34533655     0.14940
H2076       H  0.97433644  0.71077687  0.40397262     0.14940
C2077       C  0.97018001  0.70271887  0.34490294     0.36590
C2078       C  0.53000002  0.80010813  0.40411180     0.36500
N2079       N  0.95815965  0.68278296  0.33301206    -0.43750
N2080       N  0.54222832  0.82031034  0.41530104    -0.43750
C2081       C  0.99879697  0.50026787  0.09271646    -0.00160
C2082       C  0.52542469  0.99250715  0.10770356    -0.12040
C2083       C  0.52671378  0.99237404  0.13929881     0.02070
C2084       C  0.00054522  0.49953489  0.15655243    -0.00250
C2085       C  0.97377447  0.50705641  0.14117788    -0.11980
C2086       C  0.97282011  0.50771484  0.10954096     0.01960
H2087       H  0.54542188  0.98684610  0.09460025     0.14940
H2088       H  0.95354114  0.51274283  0.15384904     0.14940
C2089       C  0.94483692  0.51551302  0.09476738     0.36590
C2090       C  0.55522377  0.98453508  0.15300478     0.36500
N2091       N  0.92244077  0.52174070  0.08287671    -0.43750
N2092       N  0.57818873  0.97834417  0.16379302    -0.43750
C2093       C  0.99924790  0.49989272  0.40743511    -0.00160
C2094       C  0.52701097  0.00045319  0.39225830    -0.12040
C2095       C  0.52833617  0.00013778  0.36062603     0.02070
C2096       C  0.00119909  0.99943364  0.34351652    -0.00250
C2097       C  0.97338136  0.49883813  0.35916431    -0.11980
C2098       C  0.97225724  0.49897588  0.39079365     0.01960
H2099       H  0.54778108  0.00102521  0.40523969     0.14940
H2100       H  0.95230653  0.49820985  0.34674092     0.14940
C2101       C  0.94316639  0.49816513  0.40571221     0.36590
C2102       C  0.55796712  0.00049016  0.34679374     0.36500
N2103       N  0.91981663  0.49745205  0.41758139    -0.43750
N2104       N  0.58180794  0.00072484  0.33591236    -0.43750
C2105       C  0.50029190  0.84316867  0.25085024    -0.00160
C2106       C  0.51550961  0.85864463  0.22768247    -0.12040
C2107       C  0.51568474  0.89021997  0.22678435     0.02070
C2108       C  0.50081626  0.90673280  0.24964777    -0.00250
C2109       C  0.98564393  0.89125210  0.27287737    -0.11980
C2110       C  0.98544917  0.85964819  0.27375906     0.01960
H2111       H  0.52672655  0.84600139  0.20989937     0.14940
H2112       H  0.97443399  0.90389883  0.29065933     0.14940
C2113       C  0.97133177  0.84464267  0.29916131     0.36590
C2114       C  0.52979783  0.90508902  0.20133538     0.36500
N2115       N  0.96030969  0.83255156  0.31962982    -0.43750
N2116       N  0.54085479  0.91685515  0.18071113    -0.43750
C2117       C  0.49922395  0.59288065  0.24992127    -0.00160
C2118       C  0.52691627  0.60836361  0.25208210    -0.12040
C2119       C  0.52831134  0.63993914  0.25215734     0.02070
C2120       C  0.50140071  0.65712365  0.25002298    -0.00250
C2121       C  0.97370065  0.64164195  0.24785697    -0.11980
C2122       C  0.97231125  0.61005672  0.24774283     0.01960
H2123       H  0.54783414  0.59576599  0.25381101     0.14940
H2124       H  0.95278316  0.65424282  0.24614643     0.14940
C2125       C  0.94278928  0.59630448  0.24511843     0.36590
C2126       C  0.55786484  0.65366288  0.25456444     0.36500
N2127       N  0.91904938  0.58547666  0.24299820    -0.43750
N2128       N  0.58163165  0.66446800  0.25649390    -0.43750
O2129       O  0.52565257  0.99926806  0.79487262    -0.72950
O2130       O  0.52529951  0.50032666  0.70461104    -0.73930
O2131       O  0.52473218  0.54513106  0.75016012    -0.62550
O2132       O  0.52574293  0.95444513  0.74889573    -0.70960
O2133       O  0.97555884  0.95394432  0.75082703    -0.70510
O2134       O  0.97476439  0.54430431  0.74990705    -0.61770
O2135       O  0.97529221  0.49881956  0.70469460    -0.74280
O2136       O  0.97567825  0.99947957  0.79571085    -0.73060
Cu2137     Cu  0.52707562  0.49981338  0.74964951     1.04560
Cu2138     Cu  0.97356803  0.99911593  0.75028699     1.04330
C2139       C  0.50089395  0.99937427  0.80978561     0.93250
C2140       C  0.50039158  0.49950161  0.69020147     0.92390
C2141       C  0.49950403  0.55919186  0.74998483     0.84530
C2142       C  0.50073112  0.93996449  0.74974842     0.90800
O2143       O  0.52564134  0.74957328  0.70462295    -0.72950
O2144       O  0.52543150  0.75206028  0.79537416    -0.73930
O2145       O  0.52591944  0.70565248  0.75102326    -0.62550
O2146       O  0.52541140  0.79594145  0.74873813    -0.70960
O2147       O  0.97527089  0.79553526  0.75199239    -0.70510
O2148       O  0.97598521  0.70492007  0.74892333    -0.61770
O2149       O  0.97531901  0.74862463  0.79546931    -0.74280
O2150       O  0.97545796  0.75187740  0.70498333    -0.73060
Cu2151     Cu  0.52735980  0.75081807  0.74994324     1.04560
Cu2152     Cu  0.97373447  0.75022544  0.75031173     1.04330
C2153       C  0.50050608  0.75080374  0.69058488     0.93250
C2154       C  0.50032747  0.75025037  0.80966960     0.92390
C2155       C  0.50116646  0.69081414  0.74999116     0.84530
C2156       C  0.50029563  0.80995607  0.75057686     0.90800
O2157       O  0.77556808  0.49832399  0.79572181    -0.72950
O2158       O  0.77597787  0.50139459  0.70507975    -0.73930
O2159       O  0.77536279  0.54512410  0.75209019    -0.62550
O2160       O  0.77613712  0.95468056  0.74900990    -0.70960
O2161       O  0.72609642  0.95408231  0.75070129    -0.70510
O2162       O  0.72522703  0.54469736  0.74966039    -0.61770
O2163       O  0.72578566  0.49877878  0.70501603    -0.74200
O2164       O  0.72542834  0.49994391  0.79564553    -0.73060
Cu2165     Cu  0.77751748  0.49991468  0.75046555     1.04560
Cu2166     Cu  0.72387155  0.49936395  0.75027531     1.04330
C2167       C  0.75042031  0.49884919  0.80999938     0.93250
C2168       C  0.75094187  0.50013399  0.69084974     0.92390
C2169       C  0.75019714  0.55917615  0.75112195     0.84530
C2170       C  0.75126249  0.93997352  0.74954840     0.90800
O2171       O  0.77561125  0.74974526  0.70392402    -0.72950
O2172       O  0.77449135  0.74949029  0.79439093    -0.73930
O2173       O  0.77508141  0.70392608  0.74934769    -0.62550
O2174       O  0.77467455  0.79466357  0.74929818    -0.70960
O2175       O  0.72460356  0.79407866  0.74909203    -0.70510
O2176       O  0.72489423  0.70362326  0.74844232    -0.61770
O2177       O  0.72440825  0.74871821  0.79439154    -0.74280
O2178       O  0.72538354  0.74883588  0.70344291    -0.73060
Cu2179     Cu  0.77670429  0.74940547  0.74923510     1.04560
Cu2180     Cu  0.72306526  0.74878726  0.74883286     1.04330
C2181       C  0.75070105  0.74946705  0.68945224     0.93250
C2182       C  0.74942312  0.74957216  0.80879132     0.92390
C2183       C  0.75001524  0.68949921  0.74875042     0.84530
C2184       C  0.74949300  0.80876934  0.74943758     0.90800
O2185       O  0.99825145  0.97499486  0.95485891    -0.72950
O2186       O  0.00014242  0.97525867  0.54538632    -0.73930
O2187       O  0.95381150  0.97506646  0.50135093    -0.62550
O2188       O  0.54452055  0.97537437  0.99901938    -0.70960
O2189       O  0.54420941  0.52543362  0.00117617    -0.70510
O2190       O  0.95362095  0.52510735  0.49911318    -0.61770
O2191       O  0.99757545  0.52536812  0.54535142    -0.74280
O2192       O  0.99993055  0.52515316  0.95471070    -0.73060
Cu2193     Cu  0.99917454  0.97340675  0.50013769     1.04560
Cu2194     Cu  0.99885412  0.52703213  0.00005355     1.04330
C2195       C  0.99907372  0.50003063  0.94059932     0.93250
C2196       C  0.99874770  0.50031360  0.55955494     0.92390
C2197       C  0.93939368  0.50001907  0.50049951     0.84530
C2198       C  0.55867737  0.50051159  0.00032763     0.90800
O2199       O  0.50017079  0.72655779  0.95419321    -0.72950
O2200       O  0.50015015  0.72479253  0.54483952    -0.73930
O2201       O  0.95489207  0.72462188  0.49947434    -0.62550
O2202       O  0.54554384  0.72666598  0.99944348    -0.70960
O2203       O  0.54480337  0.77663572  0.00030876    -0.70510
O2204       O  0.95409525  0.77476564  0.00081944    -0.61770
O2205       O  0.49947903  0.77473831  0.54588059    -0.74280
O2206       O  0.49953442  0.77659144  0.95512581    -0.73060
Cu2207     Cu  0.50022394  0.72392464  0.49946098     1.04560
Cu2208     Cu  0.49942497  0.77743026  0.00056376     1.04330
C2209       C  0.49998905  0.75184608  0.94029016     0.93250
C2210       C  0.49995269  0.74945090  0.55980603     0.92390
C2211       C  0.94029810  0.74942487  0.00016960     0.84530
C2212       C  0.55960243  0.75191788  0.99977766     0.90800
O2213       O  0.75016586  0.97512115  0.95515052    -0.72950
O2214       O  0.74846309  0.97649268  0.54595375    -0.73930
O2215       O  0.70383711  0.97550162  0.49961487    -0.62550
O2216       O  0.79445816  0.97594684  0.00125342    -0.70960
O2217       O  0.79417137  0.52594499  0.99853981    -0.70510
O2218       O  0.70348760  0.52557638  0.50101879    -0.61770
O2219       O  0.74982762  0.52638368  0.54508199    -0.74280
O2220       O  0.74765306  0.52516366  0.95457325    -0.73060
Cu2221     Cu  0.74920763  0.97400764  0.50054559     1.04560
Cu2222     Cu  0.74879181  0.52750597  0.99979803     1.04330
C2223       C  0.74873862  0.49997747  0.94057520     0.93250
C2224       C  0.74938163  0.50170977  0.56000780     0.92390
C2225       C  0.68935378  0.50042051  0.50008331     0.84530
C2226       C  0.80864917  0.50104132  0.99966786     0.90800
O2227       O  0.74847564  0.72566787  0.95322124    -0.72950
O2228       O  0.75184055  0.72382467  0.54381298    -0.73930
O2229       O  0.70523181  0.72495820  0.50022195    -0.62550
O2230       O  0.79579793  0.72433733  0.99669586    -0.70960
O2231       O  0.79645670  0.77443687  0.99922398    -0.70510
O2232       O  0.70560226  0.77494229  0.00011401    -0.61770
O2233       O  0.75146371  0.77382734  0.54491384    -0.74280
O2234       O  0.75079513  0.77576145  0.95419226    -0.73060
Cu2235     Cu  0.75037884  0.72296236  0.49844183     1.04560
Cu2236     Cu  0.75110617  0.77650886  0.99962038     1.04330
C2237       C  0.74904728  0.75101916  0.93948250     0.93250
C2238       C  0.75166625  0.74850495  0.55876136     0.92390
C2239       C  0.69099223  0.74998450  0.50060725     0.84530
C2240       C  0.81034557  0.74924318  0.99779902     0.90800
C2241       C  0.90712150  0.74883818  0.00001939    -0.00160
C2242       C  0.89212797  0.74448985  0.97251862    -0.12040
C2243       C  0.86049422  0.74436110  0.97134232     0.02070
C2244       C  0.84356674  0.74890600  0.99800784    -0.00250
C2245       C  0.85859540  0.75302076  0.52556692    -0.11980
C2246       C  0.89023879  0.75275616  0.52679006     0.01960
H2247       H  0.90517577  0.74133178  0.95194441     0.14940
H2248       H  0.84557258  0.75611000  0.54616462     0.14940
C2249       C  0.90494162  0.75570242  0.55574031     0.36590
C2250       C  0.84597936  0.73976624  0.94254831     0.36500
N2251       N  0.91676939  0.75778824  0.57893974    -0.43750
N2252       N  0.83464574  0.73591060  0.91933859    -0.43750
C2253       C  0.65737137  0.75020094  0.00114194    -0.00160
C2254       C  0.64218381  0.77609726  0.99100331    -0.12040
C2255       C  0.61054926  0.77734158  0.99030432     0.02070
C2256       C  0.59322562  0.75219701  0.99997192    -0.00250
C2257       C  0.60842451  0.72638381  0.51028606    -0.11980
C2258       C  0.64002700  0.72518346  0.51111590     0.01960
H2259       H  0.65507747  0.79542282  0.98309358     0.14940
H2260       H  0.59554576  0.70704745  0.51820232     0.14940
C2261       C  0.65372662  0.69821136  0.52318532     0.36590
C2262       C  0.59679284  0.80450245  0.97876799     0.36500
N2263       N  0.66447639  0.67650291  0.53289607    -0.43750
N2264       N  0.58603512  0.82643092  0.96957876    -0.43750
C2265       C  0.90596411  0.50001700  0.50079278    -0.00160
C2266       C  0.89065902  0.52154114  0.98333477    -0.12040
C2267       C  0.85904017  0.52209022  0.98231329     0.02070
C2268       C  0.84209300  0.50111638  0.99950167    -0.00250
C2269       C  0.85740120  0.97967681  0.51708045    -0.11980
C2270       C  0.88903059  0.97903800  0.51798519     0.01960
H2271       H  0.90347294  0.53756892  0.96984079     0.14940
H2272       H  0.84458919  0.96370321  0.53064024     0.14940
C2273       C  0.90343127  0.95764175  0.53789485     0.36590
C2274       C  0.84468265  0.54335031  0.96223303     0.36500
N2275       N  0.91497382  0.94064187  0.55399443    -0.43750
N2276       N  0.83319864  0.56024306  0.94597993    -0.43750
C2277       C  0.65595384  0.50022314  0.49971626    -0.00160
C2278       C  0.64026791  0.52017847  0.51872861    -0.12040
C2279       C  0.60861412  0.52043334  0.51952045     0.02070
C2280       C  0.59209250  0.50070264  0.00067454    -0.00250
C2281       C  0.60778671  0.98077000  0.98162969    -0.11980
C2282       C  0.63944598  0.98050593  0.98085469     0.01960
H2283       H  0.65280150  0.53517251  0.53350469     0.14940
H2284       H  0.59525982  0.96579386  0.96683038     0.14940
C2285       C  0.65439130  0.96094568  0.95940490     0.36590
C2286       C  0.59370295  0.53999995  0.54098707     0.36500
N2287       N  0.66639316  0.94544748  0.94208033    -0.43750
N2288       N  0.58174091  0.55550608  0.55833171    -0.43750
C2289       C  0.75119084  0.74957720  0.65619868    -0.00160
C2290       C  0.73856793  0.72507800  0.64076190    -0.12040
C2291       C  0.73894340  0.72386114  0.60915170     0.02070
C2292       C  0.75162685  0.74801517  0.59232992    -0.00250
C2293       C  0.76402256  0.77272664  0.60801074    -0.11980
C2294       C  0.76415892  0.77353538  0.63966799     0.01960
H2295       H  0.72867161  0.70657737  0.65353897     0.14940
H2296       H  0.77385012  0.79145131  0.59550617     0.14940
C2297       C  0.77682948  0.79956745  0.65470479     0.36590
C2298       C  0.72553634  0.69782192  0.59482736     0.36500
N2299       N  0.78690625  0.82045639  0.66675802    -0.43750
N2300       N  0.71489708  0.67677551  0.58356445    -0.43750
C2301       C  0.74935546  0.75078392  0.84235436    -0.00160
C2302       C  0.72466541  0.73849875  0.85833918    -0.12040
C2303       C  0.72400133  0.73859314  0.89002333     0.02070
C2304       C  0.74807117  0.75164264  0.90623338    -0.00250
C2305       C  0.77208267  0.76500886  0.89046537    -0.11980
C2306       C  0.77325181  0.76426902  0.85885940     0.01960
H2307       H  0.70600330  0.72840960  0.84609654     0.14940
H2308       H  0.79031588  0.77557314  0.90295252     0.14940
C2309       C  0.79910226  0.77795156  0.84419163     0.36590
C2310       C  0.69793037  0.72621198  0.90545043     0.36500
N2311       N  0.81994245  0.78879525  0.83255302    -0.43750
N2312       N  0.67698512  0.71651891  0.91789277    -0.43750
C2313       C  0.74997815  0.50206739  0.59373851    -0.00160
C2314       C  0.74578036  0.97466106  0.60942854    -0.12040
C2315       C  0.74616042  0.97360890  0.64106185     0.02070
C2316       C  0.75099247  0.50022960  0.65766185    -0.00250
C2317       C  0.75543859  0.52753900  0.64242698    -0.11980
C2318       C  0.75485803  0.52881355  0.61079082     0.01960
H2319       H  0.74207638  0.95387841  0.59703299     0.14940
H2320       H  0.75910797  0.54802772  0.65536356     0.14940
C2321       C  0.75950262  0.55795216  0.59685738     0.36590
C2322       C  0.74202946  0.94491267  0.65607127     0.36500
N2323       N  0.76318229  0.58140074  0.58588011    -0.43750
N2324       N  0.73881373  0.92194647  0.66815358    -0.43750
C2325       C  0.74856211  0.49959254  0.90722038    -0.00160
C2326       C  0.76904530  0.98086006  0.89190465    -0.12040
C2327       C  0.77021116  0.98038798  0.86026560     0.02070
C2328       C  0.75013729  0.49850987  0.84341191    -0.00250
C2329       C  0.72917429  0.51670470  0.85877914    -0.11980
C2330       C  0.72841299  0.51759991  0.89040586     0.01960
H2331       H  0.78447895  0.96685449  0.90471862     0.14940
H2332       H  0.71356961  0.53057123  0.84602462     0.14940
C2333       C  0.70606781  0.53636796  0.90504026     0.36590
C2334       C  0.79151569  0.96038899  0.84572474     0.36500
N2335       N  0.68813659  0.55134842  0.91679518    -0.43750
N2336       N  0.80856937  0.94434393  0.83407744    -0.43750
C2337       C  0.74939798  0.84233043  0.74972281    -0.00160
C2338       C  0.77511840  0.85778432  0.73912905    -0.12040
C2339       C  0.77629535  0.88937059  0.73860758     0.02070
C2340       C  0.75134900  0.90639403  0.74916335    -0.00250
C2341       C  0.72563605  0.89092364  0.75978172    -0.11980
C2342       C  0.72444613  0.85933748  0.76025677     0.01960
H2343       H  0.79436377  0.84513034  0.73073736     0.14940
H2344       H  0.70640254  0.90355361  0.76823809     0.14940
C2345       C  0.69767226  0.84524024  0.77270274     0.36590
C2346       C  0.80309050  0.90342768  0.72617370     0.36500
N2347       N  0.67619165  0.83406171  0.78274590    -0.43750
N2348       N  0.82459331  0.91457192  0.71614200    -0.43750
C2349       C  0.75000291  0.59249022  0.75123152    -0.00160
C2350       C  0.73182602  0.60770567  0.73029368    -0.12040
C2351       C  0.73167189  0.63928393  0.72893792     0.02070
C2352       C  0.75000988  0.65616800  0.74883502    -0.00250
C2353       C  0.76808101  0.64093929  0.76988357    -0.11980
C2354       C  0.76793043  0.60935212  0.77148040     0.01960
H2355       H  0.71810280  0.59485253  0.71458540     0.14940
H2356       H  0.78169692  0.65379029  0.78568054     0.14940
C2357       C  0.78483640  0.59483713  0.79524875     0.36590
C2358       C  0.71335193  0.65369849  0.70619633     0.36500
N2359       N  0.79804266  0.58316130  0.81450435    -0.43750
N2360       N  0.69860549  0.66504360  0.68789534    -0.43750
C2361       C  0.50015531  0.74902554  0.59346158    -0.00160
C2362       C  0.99105890  0.77516128  0.60914212    -0.12040
C2363       C  0.99091363  0.77611809  0.64077726     0.02070
C2364       C  0.50037538  0.75076811  0.65736179    -0.00250
C2365       C  0.50973596  0.72477024  0.64204374    -0.11980
C2366       C  0.50945968  0.72350543  0.61040288     0.01960
H2367       H  0.98381481  0.79494118  0.59670050     0.14940
H2368       H  0.51699444  0.70524552  0.65491190     0.14940
C2369       C  0.51931618  0.69583692  0.59624904     0.36590
C2370       C  0.98176363  0.80360889  0.65575524     0.36500
N2371       N  0.52713501  0.67355327  0.58506345    -0.43750
N2372       N  0.97451180  0.82565673  0.66775755    -0.43750
C2373       C  0.50014566  0.75030680  0.84294733    -0.00160
C2374       C  0.51486661  0.77377448  0.85821449    -0.12040
C2375       C  0.51462019  0.77516460  0.88984029     0.02070
C2376       C  0.50009878  0.75218160  0.90677563    -0.00250
C2377       C  0.98563914  0.72851286  0.89131214    -0.11980
C2378       C  0.98522941  0.72761671  0.85968071     0.01960
H2379       H  0.52619519  0.79135014  0.84533654     0.14940
H2380       H  0.97433650  0.71077685  0.90397261     0.14940
C2381       C  0.97018008  0.70271886  0.84490294     0.36590
C2382       C  0.53000001  0.80010815  0.90411179     0.36500
N2383       N  0.95815973  0.68278294  0.83301205    -0.43750
N2384       N  0.54222830  0.82031037  0.91530103    -0.43750
C2385       C  0.99879699  0.50026788  0.59271646    -0.00160
C2386       C  0.52542469  0.99250718  0.60770357    -0.12040
C2387       C  0.52671378  0.99237407  0.63929882     0.02070
C2388       C  0.00054524  0.49953491  0.65655243    -0.00250
C2389       C  0.97377449  0.50705641  0.64117788    -0.11980
C2390       C  0.97282013  0.50771484  0.60954096     0.01960
H2391       H  0.54542189  0.98684614  0.59460025     0.14940
H2392       H  0.95354117  0.51274282  0.65384904     0.14940
C2393       C  0.94483693  0.51551300  0.59476739     0.36590
C2394       C  0.55522378  0.98453513  0.65300479     0.36500
N2395       N  0.92244078  0.52174068  0.58287672    -0.43750
N2396       N  0.57818874  0.97834424  0.66379303    -0.43750
C2397       C  0.99924791  0.49989272  0.90743511    -0.00160
C2398       C  0.52701095  0.00045321  0.89225830    -0.12040
C2399       C  0.52833616  0.00013780  0.86062603     0.02070
C2400       C  0.00119910  0.99943364  0.84351652    -0.00250
C2401       C  0.97338139  0.49883813  0.85916431    -0.11980
C2402       C  0.97225726  0.49897587  0.89079365     0.01960
H2403       H  0.54778107  0.00102524  0.90523969     0.14940
H2404       H  0.95230656  0.49820984  0.84674092     0.14940
C2405       C  0.94316641  0.49816511  0.90571220     0.36590
C2406       C  0.55796711  0.00049021  0.84679373     0.36500
N2407       N  0.91981664  0.49745202  0.91758138    -0.43750
N2408       N  0.58180792  0.00072489  0.83591236    -0.43750
C2409       C  0.50029189  0.84316868  0.75085023    -0.00160
C2410       C  0.51550965  0.85864464  0.72768250    -0.12040
C2411       C  0.51568478  0.89021998  0.72678437     0.02070
C2412       C  0.50081626  0.90673281  0.74964777    -0.00250
C2413       C  0.98564395  0.89125211  0.77287737    -0.11980
C2414       C  0.98544919  0.85964820  0.77375906     0.01960
H2415       H  0.52672662  0.84600140  0.70989942     0.14940
H2416       H  0.97443403  0.90389884  0.79065934     0.14940
C2417       C  0.97133181  0.84464268  0.79916132     0.36590
C2418       C  0.52979793  0.90508903  0.70133543     0.36500
N2419       N  0.96030974  0.83255157  0.81962984    -0.43750
N2420       N  0.54085493  0.91685515  0.68071121    -0.43750
C2421       C  0.49922392  0.59288066  0.74992127    -0.00160
C2422       C  0.52691625  0.60836362  0.75208211    -0.12040
C2423       C  0.52831131  0.63993915  0.75215735     0.02070
C2424       C  0.50140069  0.65712366  0.75002299    -0.00250
C2425       C  0.97370068  0.64164196  0.74785697    -0.11980
C2426       C  0.97231128  0.61005673  0.74774284     0.01960
H2427       H  0.54783412  0.59576601  0.75381102     0.14940
H2428       H  0.95278318  0.65424283  0.74614643     0.14940
C2429       C  0.94278931  0.59630448  0.74511843     0.36590
C2430       C  0.55786481  0.65366289  0.75456445     0.36500
N2431       N  0.91904941  0.58547666  0.74299820    -0.43750
N2432       N  0.58163163  0.66446801  0.75649391    -0.43750
loop_ 
_geom_bond_atom_site_label_1 
_geom_bond_atom_site_label_2 
_geom_bond_distance 
_geom_bond_site_symmetry_2 
_ccdc_geom_bond_type 
O1           C11   1.276       .  A
O1         Cu617   2.001       .  S
O2           C12   1.275   1_545  A
O2           Cu9   1.994   1_545  S
O3           C13   1.279   1_455  A
O3           Cu9   2.011   1_545  S
O4           C14   1.278       .  A
O4         Cu617   2.011       .  S
O5         C1230   1.276       .  A
O5          Cu10   2.004       .  S
O6         C1229   1.276       .  A
O6         Cu618   2.003   1_545  S
O7         C1228   1.280       .  A
O7         Cu618   2.018       .  S
O8         C1227   1.279       .  A
O8          Cu10   2.012       .  S
Cu9         O609   2.001       .  S
Cu9         O612   2.011       .  S
Cu9       Cu1834   2.367   1_455  S
Cu10        O614   2.003       .  S
Cu10        O615   2.018       .  S
Cu10      Cu1833   2.367       .  S
C11        O1224   1.279   1_455  A
C11        C1488   1.492       .  S
C12        O1223   1.280   1_455  A
C12        C1476   1.489       .  S
C13        O1222   1.276       .  A
C13         C293   1.493       .  S
C14        O1221   1.276   1_455  A
C14         C284   1.472       .  S
O15          C25   1.277       .  A
O15         Cu23   2.007       .  S
O16          C26   1.278       .  A
O16         Cu23   2.012       .  S
O17          C27   1.277       .  A
O17         Cu23   2.002       .  S
O18          C28   1.276       .  A
O18         Cu23   2.002       .  S
O19        C1244   1.278       .  A
O19         Cu24   2.010       .  S
O20        C1243   1.279       .  A
O20         Cu24   2.011       .  S
O21        C1242   1.276       .  A
O21         Cu24   2.000       .  S
O22        C1241   1.277       .  A
O22         Cu24   2.008       .  S
Cu23      Cu1240   2.372   1_455  S
Cu24      Cu1239   2.372       .  S
C25        O1238   1.277   1_455  A
C25         C236   1.470       .  S
C26        O1237   1.276   1_455  A
C26         C245   1.472       .  S
C27        O1236   1.279   1_455  A
C27         C296   1.493       .  S
C28        O1235   1.278   1_455  A
C28         C281   1.471       .  S
O29          C39   1.277       .  A
O29         Cu37   2.005       .  S
O30          C40   1.277       .  A
O30         Cu37   2.010   1_545  S
O31          C41   1.278       .  A
O31         Cu37   2.007   1_545  S
O32          C42   1.277       .  A
O32        Cu645   2.006       .  S
O33          C42   1.279       .  A
O33        Cu646   2.009       .  S
O34          C41   1.278       .  A
O34         Cu38   2.009   1_545  S
O35          C40   1.276   1_565  A
O35         Cu38   2.004       .  S
O36          C39   1.278       .  A
O36         Cu38   2.009       .  S
Cu37        O640   2.006       .  S
Cu37        Cu38   2.373       .  S
Cu38        O641   2.009       .  S
C39         C200   1.478       .  S
C40         C188   1.468       .  S
C41         C221   1.476       .  S
C42         C212   1.488       .  S
O43          C53   1.276       .  A
O43         Cu51   2.005       .  S
O44          C54   1.277       .  A
O44         Cu51   2.000       .  S
O45          C55   1.279       .  A
O45         Cu51   2.016       .  S
O46          C56   1.278       .  A
O46         Cu51   2.007       .  S
O47          C56   1.278       .  A
O47         Cu52   2.008       .  S
O48          C55   1.277       .  A
O48         Cu52   2.003       .  S
O49          C54   1.279       .  A
O49         Cu52   2.017       .  S
O50          C53   1.278       .  A
O50         Cu52   2.010       .  S
Cu51        Cu52   2.373       .  S
C53         C161   1.471       .  S
C54         C173   1.486       .  S
C55         C224   1.477       .  S
C56         C209   1.487       .  S
O57         C675   1.276       .  A
O57        Cu369   2.005       .  S
O58         C676   1.276       .  A
O58         Cu65   2.004       .  S
O59         C677   1.278       .  A
O59         Cu65   2.008       .  S
O60         C678   1.278       .  A
O60       Cu1585   2.008   1_455  S
O61          C70   1.278       .  A
O61       Cu1282   2.008   1_455  S
O62          C69   1.277   1_556  A
O62        Cu370   2.003   1_556  S
O63          C68   1.277       .  A
O63        Cu370   2.006       .  S
O64          C67   1.277       .  A
O64         Cu66   2.008       .  S
Cu65        O361   2.005   1_554  S
Cu65       O1580   2.008   1_554  S
Cu65       Cu978   2.376       .  S
Cu66       O1277   2.008       .  S
Cu66        O366   2.003       .  S
Cu66        O367   2.006       .  S
Cu66       Cu977   2.376   1_545  S
C67         O665   1.276   1_545  A
C67         C269   1.467   1_545  S
C68         O666   1.276   1_545  A
C68         C257   1.467       .  S
C69         O667   1.278   1_545  A
C69         C137   1.479       .  S
C70         O668   1.278   1_545  A
C70         C152   1.478       .  S
O71          C81   1.278   1_455  A
O71        Cu383   2.006       .  S
O72          C82   1.278   1_455  A
O72         Cu79   2.008   1_554  S
O73         C387   1.276   1_556  A
O73       Cu1295   2.005       .  S
O74          C84   1.279       .  A
O74        Cu383   2.008       .  S
O75          C84   1.277       .  A
O75         Cu80   2.008   1_455  S
O76          C83   1.277       .  A
O76       Cu1296   2.008       .  S
O77          C82   1.279       .  A
O77        Cu384   2.008       .  S
O78          C81   1.278       .  A
O78         Cu80   2.010       .  S
Cu79        O375   2.006       .  S
Cu79       O1289   2.005   1_455  S
Cu79        O378   2.008       .  S
Cu79       Cu384   2.371   1_456  S
Cu80       O1292   2.008       .  S
Cu80        O381   2.008       .  S
Cu80       Cu383   2.371   1_655  S
C81         C248   1.483   1_655  S
C82         C233   1.489   1_655  S
C83         O377   1.276       .  A
C83         C113   1.468       .  S
C84         C128   1.487       .  S
O85         C703   1.278       .  A
O85        Cu397   2.009       .  S
O86         C704   1.279       .  A
O86         Cu93   2.012       .  S
O87         C705   1.278   1_556  A
O87         Cu93   2.009   1_556  S
O88         C706   1.277       .  A
O88        Cu397   2.003       .  S
O89          C98   1.278       .  A
O89         Cu94   2.009       .  S
O90          C97   1.277       .  A
O90        Cu398   2.006   1_554  S
O91          C96   1.277       .  A
O91        Cu398   2.005   1_554  S
O92          C95   1.277   1_545  A
O92         Cu94   2.004       .  S
Cu93        O389   2.009   1_554  S
Cu93        O392   2.003       .  S
Cu93      Cu1006   2.370   1_554  S
Cu94        O394   2.006       .  S
Cu94        O395   2.005       .  S
Cu94      Cu1005   2.370   1_545  S
C95         O693   1.278       .  A
C95         C197   1.476       .  S
C96         O694   1.279   1_545  A
C96         C185   1.493       .  S
C97         O695   1.278   1_544  A
C97         C149   1.477   1_554  S
C98         O696   1.277   1_545  A
C98         C140   1.479       .  S
O99         C109   1.277       .  A
O99        Cu411   2.006       .  S
O100        C110   1.278       .  A
O100       Cu107   2.009   1_554  S
O101        C111   1.277       .  A
O101       Cu107   2.000   1_554  S
O102        C112   1.277       .  A
O102       Cu411   2.011       .  S
O103        C112   1.277       .  A
O103       Cu108   2.008       .  S
O104        C415   1.279       .  A
O104       Cu108   2.014       .  S
O105        C110   1.278       .  A
O105       Cu412   2.007   1_554  S
O106        C109   1.277       .  A
O106       Cu108   2.010       .  S
Cu107       O403   2.006       .  S
Cu107       O406   2.011       .  S
Cu107      Cu412   2.373       .  S
Cu108       O409   2.007       .  S
Cu108      Cu411   2.373       .  S
C109        C176   1.472       .  S
C110        C164   1.485       .  S
C111        O408   1.279       .  A
C111        C429   1.487       .  S
C112        C116   1.470       .  S
C113        C114   1.401       .  A
C113        C422   1.409       .  A
C114        C115   1.400       .  A
C114        H119   1.085       .  S
C115        C116   1.409       .  A
C115        C122   1.443       .  S
C116        C421   1.403       .  A
C117        C118   1.401       .  A
C117        C420   1.403   1_554  A
C117        H120   1.085       .  S
C118        C417   1.409       .  A
C118        C121   1.444       .  S
C121        N123   1.157       .  T
C122        N124   1.157       .  T
C125        C415   1.487       .  S
C125        C126   1.405       .  A
C125        C434   1.416       .  A
C126        C127   1.401       .  A
C126        H131   1.085       .  S
C127        C128   1.416       .  A
C127        C134   1.444       .  S
C128        C433   1.405       .  A
C129        C130   1.400       .  A
C129        C432   1.405   1_554  A
C129        H132   1.085       .  S
C130        C429   1.416       .  A
C130        C133   1.444       .  S
C133        N135   1.157       .  T
C134        N136   1.157       .  T
C137        C442   1.404   1_554  A
C137        C750   1.412   1_545  A
C138        C139   1.400       .  A
C138        C441   1.404       .  A
C138        H143   1.085       .  S
C139        C140   1.413       .  A
C139        C146   1.444       .  S
C140       C1053   1.404   1_545  A
C141        C142   1.400       .  A
C141       C1052   1.404   1_554  A
C141        H144   1.085       .  S
C142        C745   1.412       .  A
C142        C145   1.445       .  S
C145        N147   1.157       .  T
C146        N148   1.157       .  T
C149        C150   1.403   1_556  A
C149       C1066   1.412   1_545  A
C150        C151   1.400       .  A
C150        H155   1.085       .  S
C151        C456   1.413       .  A
C151        C158   1.445       .  S
C152        C455   1.413       .  A
C152        C761   1.404   1_545  A
C153        C154   1.401       .  A
C153        C760   1.404       .  A
C153        H156   1.085       .  S
C154       C1061   1.412       .  A
C154        C157   1.445       .  S
C157        N159   1.157       .  T
C158        N160   1.157       .  T
C161        C162   1.399       .  A
C161        C166   1.408       .  A
C162        C163   1.399       .  A
C162        H167   1.086       .  S
C163        C164   1.417       .  A
C163        C170   1.444       .  S
C164        C165   1.407       .  A
C165        C166   1.401       .  A
C165        H168   1.086       .  S
C166        C169   1.445       .  S
C169        N171   1.157       .  T
C170        N172   1.157       .  T
C173        C174   1.407       .  A
C173        C178   1.418       .  A
C174        C175   1.402       .  A
C174        H179   1.085       .  S
C175        C176   1.409       .  A
C175        C182   1.445       .  S
C176        C177   1.399       .  A
C177        C178   1.399       .  A
C177        H180   1.085       .  S
C178        C181   1.444       .  S
C181        N183   1.157       .  T
C182        N184   1.157       .  T
C185        C190   1.421       .  A
C185        C794   1.410   1_545  A
C186        C187   1.400       .  A
C186        C793   1.410       .  A
C186        H191   1.084       .  S
C187        C796   1.406       .  A
C187        C194   1.445       .  S
C188        C189   1.398       .  A
C188        C795   1.406   1_545  A
C189        C190   1.401       .  A
C189        H192   1.085       .  S
C190        C193   1.444       .  S
C193        N195   1.157       .  T
C194        N196   1.157       .  T
C197        C202   1.412   1_565  A
C197        C806   1.403       .  A
C198        C199   1.401       .  A
C198        C805   1.403       .  A
C198        H203   1.085       .  S
C199        C808   1.413       .  A
C199        C206   1.444       .  S
C200        C201   1.404   1_565  A
C200        C807   1.413       .  A
C201        C202   1.400       .  A
C201        H204   1.085       .  S
C202        C205   1.445       .  S
C205        N207   1.157       .  T
C206        N208   1.157       .  T
C209        C210   1.405       .  A
C209        C214   1.415       .  A
C210        C211   1.400       .  A
C210        H215   1.085       .  S
C211        C212   1.416       .  A
C211        C218   1.444       .  S
C212        C213   1.406       .  A
C213        C214   1.400       .  A
C213        H216   1.085       .  S
C214        C217   1.445       .  S
C217        N219   1.157       .  T
C218        N220   1.157       .  T
C221        C222   1.402       .  A
C221        C226   1.411       .  A
C222        C223   1.400       .  A
C222        H227   1.085       .  S
C223        C224   1.412       .  A
C223        C230   1.444       .  S
C224        C225   1.403       .  A
C225        C226   1.401       .  A
C225        H228   1.085       .  S
C226        C229   1.444       .  S
C229        N231   1.157       .  T
C230        N232   1.157       .  T
C233        C238   1.419       .  A
C233       C1450   1.409   1_455  A
C234        C235   1.400       .  A
C234       C1449   1.409       .  A
C234        H239   1.084       .  S
C235       C1452   1.407       .  A
C235        C242   1.445       .  S
C236        C237   1.399       .  A
C236       C1451   1.407   1_455  A
C237        C238   1.401       .  A
C237        H240   1.085       .  S
C238        C241   1.444       .  S
C241        N243   1.157       .  T
C242        N244   1.157       .  T
C245        C246   1.401       .  A
C245       C1466   1.409   1_455  A
C246        C247   1.400       .  A
C246        H251   1.085       .  S
C247        C248   1.415       .  A
C247        C254   1.443       .  S
C248       C1465   1.406   1_455  A
C249        C250   1.400       .  A
C249       C1464   1.406       .  A
C249        H252   1.085       .  S
C250       C1461   1.409       .  A
C250        C253   1.445       .  S
C253        N255   1.157       .  T
C254        N256   1.157       .  T
C257        C262   1.407       .  A
C257       C2082   1.397   1_545  A
C258        C259   1.399       .  A
C258       C2081   1.397   1_455  A
C258        H263   1.086       .  S
C259       C2084   1.421       .  A
C259        C266   1.444       .  S
C260       C1228   1.489       .  S
C260        C261   1.408   1_565  A
C260       C2083   1.421       .  A
C261        C262   1.401       .  A
C261        H264   1.084       .  S
C262        C265   1.445       .  S
C265        N267   1.157       .  T
C266        N268   1.158       .  T
C269        C274   1.406       .  A
C269       C2094   1.397   1_565  A
C270        C271   1.400       .  A
C270       C2093   1.397   1_455  A
C270        H275   1.086       .  S
C271       C1488   1.422       .  A
C271        C278   1.444       .  S
C272       C1227   1.492       .  S
C272       C1487   1.422       .  A
C272        C881   1.410       .  A
C273        C274   1.400       .  A
C273        C880   1.410       .  A
C273        H276   1.084       .  S
C274        C277   1.444       .  S
C277        N279   1.157       .  T
C278        N280   1.157       .  T
C281        C282   1.402       .  A
C281       C1502   1.410   1_455  A
C282        C283   1.399       .  A
C282        H287   1.085       .  S
C283        C284   1.410       .  A
C283        C290   1.443       .  S
C284       C1501   1.403   1_455  A
C285        C286   1.401       .  A
C285       C1500   1.403       .  A
C285        H288   1.085       .  S
C286       C1497   1.410       .  A
C286        C289   1.445       .  S
C289        N291   1.157       .  T
C290        N292   1.157       .  T
C293        C294   1.406   1_655  A
C293       C1514   1.418       .  A
C294        C295   1.400       .  A
C294        H299   1.085       .  S
C295        C296   1.418       .  A
C295        C302   1.445       .  S
C296       C1513   1.406   1_455  A
C297        C298   1.401       .  A
C297       C1512   1.406       .  A
C297        H300   1.085       .  S
C298       C1509   1.418       .  A
C298        C301   1.445       .  S
C301        N303   1.158       .  T
C302        N304   1.157       .  T
O305        C315   1.276       .  A
O305       Cu921   2.001       .  S
O306        C316   1.275   1_545  A
O306       Cu313   1.994   1_545  S
O307        C317   1.279   1_455  A
O307       Cu313   2.011   1_545  S
O308        C318   1.278       .  A
O308       Cu921   2.011       .  S
O309       C1534   1.276       .  A
O309       Cu314   2.004       .  S
O310       C1533   1.276       .  A
O310       Cu922   2.003   1_545  S
O311       C1532   1.280       .  A
O311       Cu922   2.018       .  S
O312       C1531   1.279       .  A
O312       Cu314   2.012       .  S
Cu313       O913   2.001       .  S
Cu313       O916   2.011       .  S
Cu313     Cu2138   2.367   1_455  S
Cu314       O918   2.003       .  S
Cu314       O919   2.018       .  S
Cu314     Cu2137   2.367       .  S
C315       O1528   1.279   1_455  A
C315       C1792   1.492       .  S
C316       O1527   1.280   1_455  A
C316       C1780   1.489       .  S
C317       O1526   1.276       .  A
C317        C597   1.493       .  S
C318       O1525   1.276   1_455  A
C318        C588   1.472       .  S
O319        C329   1.277       .  A
O319       Cu327   2.007       .  S
O320        C330   1.278       .  A
O320       Cu327   2.012       .  S
O321        C331   1.277       .  A
O321       Cu327   2.002       .  S
O322        C332   1.276       .  A
O322       Cu327   2.002       .  S
O323       C1548   1.278       .  A
O323       Cu328   2.010       .  S
O324       C1547   1.279       .  A
O324       Cu328   2.011       .  S
O325       C1546   1.276       .  A
O325       Cu328   2.000       .  S
O326       C1545   1.277       .  A
O326       Cu328   2.008       .  S
Cu327     Cu1544   2.372   1_455  S
Cu328     Cu1543   2.372       .  S
C329       O1542   1.277   1_455  A
C329        C540   1.470       .  S
C330       O1541   1.276   1_455  A
C330        C549   1.472       .  S
C331       O1540   1.279   1_455  A
C331        C600   1.493       .  S
C332       O1539   1.278   1_455  A
C332        C585   1.471       .  S
O333        C343   1.277       .  A
O333       Cu341   2.005       .  S
O334        C344   1.277       .  A
O334       Cu341   2.010   1_545  S
O335        C345   1.278       .  A
O335       Cu341   2.007   1_545  S
O336        C346   1.277       .  A
O336       Cu949   2.006       .  S
O337        C346   1.279       .  A
O337       Cu950   2.009       .  S
O338        C345   1.278       .  A
O338       Cu342   2.009   1_545  S
O339        C344   1.276   1_565  A
O339       Cu342   2.004       .  S
O340        C343   1.278       .  A
O340       Cu342   2.009       .  S
Cu341       O944   2.006       .  S
Cu341      Cu342   2.373       .  S
Cu342       O945   2.009       .  S
C343        C504   1.478       .  S
C344        C492   1.468       .  S
C345        C525   1.476       .  S
C346        C516   1.488       .  S
O347        C357   1.276       .  A
O347       Cu355   2.005       .  S
O348        C358   1.277       .  A
O348       Cu355   2.000       .  S
O349        C359   1.279       .  A
O349       Cu355   2.016       .  S
O350        C360   1.278       .  A
O350       Cu355   2.007       .  S
O351        C360   1.278       .  A
O351       Cu356   2.008       .  S
O352        C359   1.277       .  A
O352       Cu356   2.003       .  S
O353        C358   1.279       .  A
O353       Cu356   2.017       .  S
O354        C357   1.278       .  A
O354       Cu356   2.010       .  S
Cu355      Cu356   2.373       .  S
C357        C465   1.471       .  S
C358        C477   1.486       .  S
C359        C528   1.477       .  S
C360        C513   1.487       .  S
O361        C979   1.276       .  A
O362        C980   1.276       .  A
O362       Cu369   2.004       .  S
O363        C981   1.278       .  A
O363       Cu369   2.008       .  S
O364        C982   1.278   1_556  A
O364      Cu1281   2.008   1_456  S
O365        C374   1.278       .  A
O365      Cu1586   2.008   1_455  S
O366        C373   1.277       .  A
O367        C372   1.277       .  A
O368        C371   1.277       .  A
O368       Cu370   2.008   1_556  S
Cu369      O1276   2.008       .  S
Cu369      Cu674   2.376       .  S
Cu370      O1581   2.008       .  S
Cu370      Cu673   2.376   1_545  S
C371        O969   1.276   1_545  A
C371        C573   1.467   1_545  S
C372        O970   1.276   1_545  A
C372        C561   1.467       .  S
C373        O971   1.278   1_545  A
C373        C441   1.479       .  S
C374        O972   1.278   1_544  A
C374        C456   1.478       .  S
O375        C385   1.278   1_455  A
O376        C386   1.278   1_455  A
O376       Cu383   2.008       .  S
O377      Cu1599   2.005       .  S
O378        C388   1.279       .  A
O379        C388   1.277   1_554  A
O379       Cu384   2.008   1_455  S
O380        C387   1.277       .  A
O380      Cu1600   2.008       .  S
O381        C386   1.279       .  A
O382        C385   1.278       .  A
O382       Cu384   2.010   1_556  S
Cu383      O1593   2.005   1_455  S
Cu384      O1596   2.008       .  S
C385        C552   1.483   1_655  S
C386        C537   1.489   1_655  S
C387        C417   1.468       .  S
C388        C432   1.487       .  S
O389       C1007   1.278       .  A
O390       C1008   1.279       .  A
O390       Cu397   2.012       .  S
O391       C1009   1.278       .  A
O391       Cu397   2.009       .  S
O392       C1010   1.277   1_554  A
O393        C402   1.278       .  A
O393       Cu398   2.009       .  S
O394        C401   1.277       .  A
O395        C400   1.277       .  A
O396        C399   1.277   1_545  A
O396       Cu398   2.004       .  S
Cu397      Cu702   2.370       .  S
Cu398      Cu701   2.370   1_546  S
C399        O997   1.278       .  A
C399        C501   1.476       .  S
C400        O998   1.279   1_545  A
C400        C489   1.493       .  S
C401        O999   1.278   1_545  A
C401        C453   1.477       .  S
C402       O1000   1.277   1_546  A
C402        C444   1.479       .  S
O403        C413   1.277       .  A
O404        C414   1.278       .  A
O404       Cu411   2.009       .  S
O405        C415   1.277       .  A
O405       Cu411   2.000       .  S
O406        C416   1.277       .  A
O407        C416   1.277       .  A
O407       Cu412   2.008       .  S
O408       Cu412   2.014   1_554  S
O409        C414   1.278       .  A
O410        C413   1.277       .  A
O410       Cu412   2.010       .  S
C413        C480   1.472       .  S
C414        C468   1.485       .  S
C416        C420   1.470       .  S
C417        C418   1.401   1_554  A
C418        C419   1.400       .  A
C418        H423   1.085       .  S
C419        C420   1.409       .  A
C419        C426   1.443       .  S
C421        C422   1.401       .  A
C421        H424   1.085       .  S
C422        C425   1.444       .  S
C425        N427   1.157       .  T
C426        N428   1.157       .  T
C429        C430   1.405   1_554  A
C430        C431   1.401       .  A
C430        H435   1.085       .  S
C431        C432   1.416       .  A
C431        C438   1.444       .  S
C433        C434   1.400       .  A
C433        H436   1.085       .  S
C434        C437   1.444       .  S
C437        N439   1.157       .  T
C438        N440   1.157       .  T
C441       C1054   1.412   1_545  A
C442        C443   1.400       .  A
C442        H447   1.085       .  S
C443        C444   1.413       .  A
C443        C450   1.444       .  S
C444        C749   1.404   1_546  A
C445        C748   1.404       .  A
C445        C446   1.400       .  A
C445        H448   1.085       .  S
C446       C1049   1.412       .  A
C446        C449   1.445       .  S
C449        N451   1.157       .  T
C450        N452   1.157       .  T
C453        C454   1.403       .  A
C453        C762   1.412   1_545  A
C454        C455   1.400       .  A
C454        H459   1.085       .  S
C455        C462   1.445       .  S
C456       C1065   1.404   1_544  A
C457       C1064   1.404   1_556  A
C457        C458   1.401       .  A
C457        H460   1.085       .  S
C458        C757   1.412       .  A
C458        C461   1.445       .  S
C461        N463   1.157       .  T
C462        N464   1.157       .  T
C465        C466   1.399       .  A
C465        C470   1.408       .  A
C466        C467   1.399       .  A
C466        H471   1.086       .  S
C467        C468   1.417       .  A
C467        C474   1.444       .  S
C468        C469   1.407       .  A
C469        C470   1.401       .  A
C469        H472   1.086       .  S
C470        C473   1.445       .  S
C473        N475   1.157       .  T
C474        N476   1.157       .  T
C477        C478   1.407       .  A
C477        C482   1.418       .  A
C478        C479   1.402       .  A
C478        H483   1.085       .  S
C479        C480   1.409       .  A
C479        C486   1.445       .  S
C480        C481   1.399       .  A
C481        C482   1.399       .  A
C481        H484   1.085       .  S
C482        C485   1.444       .  S
C485        N487   1.157       .  T
C486        N488   1.157       .  T
C489       C1098   1.410   1_545  A
C489        C494   1.421       .  A
C490       C1097   1.410       .  A
C490        C491   1.400       .  A
C490        H495   1.084       .  S
C491       C1100   1.406       .  A
C491        C498   1.445       .  S
C492       C1099   1.406   1_545  A
C492        C493   1.398       .  A
C493        C494   1.401       .  A
C493        H496   1.085       .  S
C494        C497   1.444       .  S
C497        N499   1.157       .  T
C498        N500   1.157       .  T
C501       C1110   1.403       .  A
C501        C506   1.412   1_565  A
C502       C1109   1.403       .  A
C502        C503   1.401       .  A
C502        H507   1.085       .  S
C503       C1112   1.413       .  A
C503        C510   1.444       .  S
C504       C1111   1.413       .  A
C504        C505   1.404   1_565  A
C505        C506   1.400       .  A
C505        H508   1.085       .  S
C506        C509   1.445       .  S
C509        N511   1.157       .  T
C510        N512   1.157       .  T
C513        C514   1.405       .  A
C513        C518   1.415       .  A
C514        C515   1.400       .  A
C514        H519   1.085       .  S
C515        C516   1.416       .  A
C515        C522   1.444       .  S
C516        C517   1.406       .  A
C517        C518   1.400       .  A
C517        H520   1.085       .  S
C518        C521   1.445       .  S
C521        N523   1.157       .  T
C522        N524   1.157       .  T
C525        C526   1.402       .  A
C525        C530   1.411       .  A
C526        C527   1.400       .  A
C526        H531   1.085       .  S
C527        C528   1.412       .  A
C527        C534   1.444       .  S
C528        C529   1.403       .  A
C529        C530   1.401       .  A
C529        H532   1.085       .  S
C530        C533   1.444       .  S
C533        N535   1.157       .  T
C534        N536   1.157       .  T
C537       C1754   1.409   1_455  A
C537        C542   1.419       .  A
C538       C1753   1.409       .  A
C538        C539   1.400       .  A
C538        H543   1.084       .  S
C539       C1756   1.407       .  A
C539        C546   1.445       .  S
C540       C1755   1.407   1_455  A
C540        C541   1.399       .  A
C541        C542   1.401       .  A
C541        H544   1.085       .  S
C542        C545   1.444       .  S
C545        N547   1.157       .  T
C546        N548   1.157       .  T
C549        C550   1.401       .  A
C549       C1770   1.409   1_455  A
C550        C551   1.400       .  A
C550        H555   1.085       .  S
C551        C552   1.415       .  A
C551        C558   1.443       .  S
C552       C1769   1.406   1_455  A
C553       C1768   1.406       .  A
C553        C554   1.400       .  A
C553        H556   1.085       .  S
C554       C1765   1.409       .  A
C554        C557   1.445       .  S
C557        N559   1.157       .  T
C558        N560   1.157       .  T
C561       C2386   1.397   1_545  A
C561        C566   1.407       .  A
C562       C2385   1.397   1_455  A
C562        C563   1.399       .  A
C562        H567   1.086       .  S
C563       C2388   1.421       .  A
C563        C570   1.444       .  S
C564       C1532   1.489       .  S
C564       C2387   1.421       .  A
C564        C565   1.408   1_565  A
C565        C566   1.401       .  A
C565        H568   1.084       .  S
C566        C569   1.445       .  S
C569        N571   1.157       .  T
C570        N572   1.158       .  T
C573       C2398   1.397   1_565  A
C573        C578   1.406       .  A
C574       C2397   1.397   1_455  A
C574        C575   1.400       .  A
C574        H579   1.086       .  S
C575       C1792   1.422       .  A
C575        C582   1.444       .  S
C576       C1531   1.492       .  S
C576       C1791   1.422       .  A
C576       C1185   1.410       .  A
C577       C1184   1.410       .  A
C577        C578   1.400       .  A
C577        H580   1.084       .  S
C578        C581   1.444       .  S
C581        N583   1.157       .  T
C582        N584   1.157       .  T
C585        C586   1.402       .  A
C585       C1806   1.410   1_455  A
C586        C587   1.399       .  A
C586        H591   1.085       .  S
C587        C588   1.410       .  A
C587        C594   1.443       .  S
C588       C1805   1.403   1_455  A
C589       C1804   1.403       .  A
C589        C590   1.401       .  A
C589        H592   1.085       .  S
C590       C1801   1.410       .  A
C590        C593   1.445       .  S
C593        N595   1.157       .  T
C594        N596   1.157       .  T
C597        C598   1.406   1_655  A
C597       C1818   1.418       .  A
C598        C599   1.400       .  A
C598        H603   1.085       .  S
C599        C600   1.418       .  A
C599        C606   1.445       .  S
C600       C1817   1.406   1_455  A
C601       C1816   1.406       .  A
C601        C602   1.401       .  A
C601        H604   1.085       .  S
C602       C1813   1.418       .  A
C602        C605   1.445       .  S
C605        N607   1.158       .  T
C606        N608   1.157       .  T
O609        C619   1.276       .  A
O610        C620   1.275       .  A
O610       Cu617   1.994       .  S
O611        C621   1.279   1_455  A
O611       Cu617   2.011       .  S
O612        C622   1.278       .  A
O613       C1838   1.276       .  A
O613       Cu618   2.004       .  S
O614       C1837   1.276       .  A
O615       C1836   1.280       .  A
O616       C1835   1.279       .  A
O616       Cu618   2.012       .  S
Cu617     Cu1226   2.367   1_455  S
Cu618     Cu1225   2.367       .  S
C619       O1832   1.279   1_455  A
C619       C2096   1.492       .  S
C620       O1831   1.280   1_455  A
C620       C2084   1.489       .  S
C621       O1830   1.276       .  A
C621        C901   1.493       .  S
C622       O1829   1.276   1_455  A
C622        C892   1.472       .  S
O623        C633   1.277       .  A
O623       Cu631   2.007       .  S
O624        C634   1.278       .  A
O624       Cu631   2.012       .  S
O625        C635   1.277       .  A
O625       Cu631   2.002       .  S
O626        C636   1.276       .  A
O626       Cu631   2.002       .  S
O627       C1852   1.278       .  A
O627       Cu632   2.010       .  S
O628       C1851   1.279       .  A
O628       Cu632   2.011       .  S
O629       C1850   1.276       .  A
O629       Cu632   2.000       .  S
O630       C1849   1.277       .  A
O630       Cu632   2.008       .  S
Cu631     Cu1848   2.372   1_455  S
Cu632     Cu1847   2.372       .  S
C633       O1846   1.277   1_455  A
C633        C844   1.470       .  S
C634       O1845   1.276   1_455  A
C634        C853   1.472       .  S
C635       O1844   1.279   1_455  A
C635        C904   1.493       .  S
C636       O1843   1.278   1_455  A
C636        C889   1.471       .  S
O637        C647   1.277       .  A
O637       Cu645   2.005       .  S
O638        C648   1.277       .  A
O638       Cu645   2.010       .  S
O639        C649   1.278       .  A
O639       Cu645   2.007       .  S
O640        C650   1.277       .  A
O641        C650   1.279       .  A
O642        C649   1.278       .  A
O642       Cu646   2.009       .  S
O643        C648   1.276       .  A
O643       Cu646   2.004       .  S
O644        C647   1.278       .  A
O644       Cu646   2.009       .  S
Cu645      Cu646   2.373       .  S
C647        C808   1.478       .  S
C648        C796   1.468       .  S
C649        C829   1.476       .  S
C650        C820   1.488       .  S
O651        C661   1.276       .  A
O651       Cu659   2.005       .  S
O652        C662   1.277       .  A
O652       Cu659   2.000       .  S
O653        C663   1.279       .  A
O653       Cu659   2.016       .  S
O654        C664   1.278       .  A
O654       Cu659   2.007       .  S
O655        C664   1.278       .  A
O655       Cu660   2.008       .  S
O656        C663   1.277       .  A
O656       Cu660   2.003       .  S
O657        C662   1.279       .  A
O657       Cu660   2.017       .  S
O658        C661   1.278       .  A
O658       Cu660   2.010       .  S
Cu659      Cu660   2.373       .  S
C661        C769   1.471       .  S
C662        C781   1.486       .  S
C663        C832   1.477       .  S
C664        C817   1.487       .  S
O665       Cu977   2.005       .  S
O666       Cu673   2.004       .  S
O667       Cu673   2.008       .  S
O668      Cu2193   2.008   1_455  S
O669        C678   1.278       .  A
O669      Cu1890   2.008   1_455  S
O670        C677   1.277   1_556  A
O670       Cu978   2.003   1_556  S
O671        C676   1.277       .  A
O671       Cu978   2.006       .  S
O672        C675   1.277       .  A
O672       Cu674   2.008       .  S
Cu673       O969   2.005   1_554  S
Cu673      O2188   2.008   1_554  S
Cu674      O1885   2.008       .  S
Cu674       O974   2.003       .  S
Cu674       O975   2.006       .  S
C675        C877   1.467       .  S
C676        C865   1.467       .  S
C677        C745   1.479       .  S
C678        C760   1.478       .  S
O679        C689   1.278   1_455  A
O679       Cu991   2.006       .  S
O680        C690   1.278   1_455  A
O680       Cu687   2.008   1_554  S
O681        C995   1.276   1_556  A
O681      Cu1903   2.005       .  S
O682        C692   1.279       .  A
O682       Cu991   2.008       .  S
O683        C692   1.277       .  A
O683       Cu688   2.008   1_455  S
O684        C691   1.277       .  A
O684      Cu1904   2.008       .  S
O685        C690   1.279       .  A
O685       Cu992   2.008       .  S
O686        C689   1.278       .  A
O686       Cu688   2.010       .  S
Cu687       O983   2.006       .  S
Cu687      O1897   2.005   1_455  S
Cu687       O986   2.008       .  S
Cu687      Cu992   2.371   1_456  S
Cu688      O1900   2.008       .  S
Cu688       O989   2.008       .  S
Cu688      Cu991   2.371   1_655  S
C689        C856   1.483   1_655  S
C690        C841   1.489   1_655  S
C691        O985   1.276       .  A
C691        C721   1.468       .  S
C692        C736   1.487       .  S
O693      Cu1005   2.009       .  S
O694       Cu701   2.012       .  S
O695       Cu701   2.009   1_556  S
O696      Cu1005   2.003       .  S
O697        C706   1.278       .  A
O697       Cu702   2.009       .  S
O698        C705   1.277       .  A
O698      Cu1006   2.006   1_554  S
O699        C704   1.277       .  A
O699      Cu1006   2.005   1_554  S
O700        C703   1.277       .  A
O700       Cu702   2.004       .  S
Cu701       O997   2.009   1_554  S
Cu701      O1000   2.003       .  S
Cu702      O1002   2.006       .  S
Cu702      O1003   2.005       .  S
C703        C805   1.476       .  S
C704        C793   1.493       .  S
C705        C757   1.477   1_554  S
C706        C748   1.479       .  S
O707        C717   1.277       .  A
O707      Cu1019   2.006       .  S
O708        C718   1.278       .  A
O708       Cu715   2.009   1_554  S
O709        C719   1.277       .  A
O709       Cu715   2.000   1_554  S
O710        C720   1.277       .  A
O710      Cu1019   2.011       .  S
O711        C720   1.277       .  A
O711       Cu716   2.008       .  S
O712       C1023   1.279       .  A
O712       Cu716   2.014       .  S
O713        C718   1.278       .  A
O713      Cu1020   2.007   1_554  S
O714        C717   1.277       .  A
O714       Cu716   2.010       .  S
Cu715      O1011   2.006       .  S
Cu715      O1014   2.011       .  S
Cu715     Cu1020   2.373       .  S
Cu716      O1017   2.007       .  S
Cu716     Cu1019   2.373       .  S
C717        C784   1.472       .  S
C718        C772   1.485       .  S
C719       O1016   1.279       .  A
C719       C1037   1.487       .  S
C720        C724   1.470       .  S
C721        C722   1.401       .  A
C721       C1030   1.409       .  A
C722        C723   1.400       .  A
C722        H727   1.085       .  S
C723        C724   1.409       .  A
C723        C730   1.443       .  S
C724       C1029   1.403       .  A
C725       C1028   1.403   1_554  A
C725        C726   1.401       .  A
C725        H728   1.085       .  S
C726       C1025   1.409       .  A
C726        C729   1.444       .  S
C729        N731   1.157       .  T
C730        N732   1.157       .  T
C733       C1023   1.487       .  S
C733        C734   1.405       .  A
C733       C1042   1.416       .  A
C734        C735   1.401       .  A
C734        H739   1.085       .  S
C735        C736   1.416       .  A
C735        C742   1.444       .  S
C736       C1041   1.405       .  A
C737       C1040   1.405   1_554  A
C737        C738   1.400       .  A
C737        H740   1.085       .  S
C738       C1037   1.416       .  A
C738        C741   1.444       .  S
C741        N743   1.157       .  T
C742        N744   1.157       .  T
C745       C1050   1.404   1_554  A
C746       C1049   1.404       .  A
C746        C747   1.400       .  A
C746        H751   1.085       .  S
C747        C748   1.413       .  A
C747        C754   1.444       .  S
C749        C750   1.400       .  A
C749        H752   1.085       .  S
C750        C753   1.445       .  S
C753        N755   1.157       .  T
C754        N756   1.157       .  T
C757        C758   1.403   1_556  A
C758        C759   1.400       .  A
C758        H763   1.085       .  S
C759       C1064   1.413       .  A
C759        C766   1.445       .  S
C760       C1063   1.413       .  A
C761        C762   1.401       .  A
C761        H764   1.085       .  S
C762        C765   1.445       .  S
C765        N767   1.157       .  T
C766        N768   1.157       .  T
C769        C770   1.399       .  A
C769        C774   1.408       .  A
C770        C771   1.399       .  A
C770        H775   1.086       .  S
C771        C772   1.417       .  A
C771        C778   1.444       .  S
C772        C773   1.407       .  A
C773        C774   1.401       .  A
C773        H776   1.086       .  S
C774        C777   1.445       .  S
C777        N779   1.157       .  T
C778        N780   1.157       .  T
C781        C782   1.407       .  A
C781        C786   1.418       .  A
C782        C783   1.402       .  A
C782        H787   1.085       .  S
C783        C784   1.409       .  A
C783        C790   1.445       .  S
C784        C785   1.399       .  A
C785        C786   1.399       .  A
C785        H788   1.085       .  S
C786        C789   1.444       .  S
C789        N791   1.157       .  T
C790        N792   1.157       .  T
C793        C798   1.421       .  A
C794        C795   1.400       .  A
C794        H799   1.084       .  S
C795        C802   1.445       .  S
C796        C797   1.398       .  A
C797        C798   1.401       .  A
C797        H800   1.085       .  S
C798        C801   1.444       .  S
C801        N803   1.157       .  T
C802        N804   1.157       .  T
C805        C810   1.412       .  A
C806        C807   1.401       .  A
C806        H811   1.085       .  S
C807        C814   1.444       .  S
C808        C809   1.404       .  A
C809        C810   1.400       .  A
C809        H812   1.085       .  S
C810        C813   1.445       .  S
C813        N815   1.157       .  T
C814        N816   1.157       .  T
C817        C818   1.405       .  A
C817        C822   1.415       .  A
C818        C819   1.400       .  A
C818        H823   1.085       .  S
C819        C820   1.416       .  A
C819        C826   1.444       .  S
C820        C821   1.406       .  A
C821        C822   1.400       .  A
C821        H824   1.085       .  S
C822        C825   1.445       .  S
C825        N827   1.157       .  T
C826        N828   1.157       .  T
C829        C830   1.402       .  A
C829        C834   1.411       .  A
C830        C831   1.400       .  A
C830        H835   1.085       .  S
C831        C832   1.412       .  A
C831        C838   1.444       .  S
C832        C833   1.403       .  A
C833        C834   1.401       .  A
C833        H836   1.085       .  S
C834        C837   1.444       .  S
C837        N839   1.157       .  T
C838        N840   1.157       .  T
C841       C2058   1.409   1_455  A
C841        C846   1.419       .  A
C842       C2057   1.409       .  A
C842        C843   1.400       .  A
C842        H847   1.084       .  S
C843       C2060   1.407       .  A
C843        C850   1.445       .  S
C844       C2059   1.407   1_455  A
C844        C845   1.399       .  A
C845        C846   1.401       .  A
C845        H848   1.085       .  S
C846        C849   1.444       .  S
C849        N851   1.157       .  T
C850        N852   1.157       .  T
C853        C854   1.401       .  A
C853       C2074   1.409   1_455  A
C854        C855   1.400       .  A
C854        H859   1.085       .  S
C855        C856   1.415       .  A
C855        C862   1.443       .  S
C856       C2073   1.406   1_455  A
C857       C2072   1.406       .  A
C857        C858   1.400       .  A
C857        H860   1.085       .  S
C858       C2069   1.409       .  A
C858        C861   1.445       .  S
C861        N863   1.157       .  T
C862        N864   1.157       .  T
C865       C1474   1.397       .  A
C865        C870   1.407       .  A
C866       C1473   1.397   1_465  A
C866        C867   1.399       .  A
C866        H871   1.086       .  S
C867       C1476   1.421       .  A
C867        C874   1.444       .  S
C868       C1836   1.489       .  S
C868       C1475   1.421       .  A
C868        C869   1.408       .  A
C869        C870   1.401       .  A
C869        H872   1.084       .  S
C870        C873   1.445       .  S
C873        N875   1.157       .  T
C874        N876   1.158       .  T
C877       C1486   1.397       .  A
C877        C882   1.406       .  A
C878       C1485   1.397   1_445  A
C878        C879   1.400       .  A
C878        H883   1.086       .  S
C879       C2096   1.422   1_545  A
C879        C886   1.444       .  S
C880       C1835   1.492       .  S
C880       C2095   1.422   1_565  A
C881        C882   1.400       .  A
C881        H884   1.084       .  S
C882        C885   1.444       .  S
C885        N887   1.157       .  T
C886        N888   1.157       .  T
C889        C890   1.402       .  A
C889       C2110   1.410   1_455  A
C890        C891   1.399       .  A
C890        H895   1.085       .  S
C891        C892   1.410       .  A
C891        C898   1.443       .  S
C892       C2109   1.403   1_455  A
C893       C2108   1.403       .  A
C893        C894   1.401       .  A
C893        H896   1.085       .  S
C894       C2105   1.410       .  A
C894        C897   1.445       .  S
C897        N899   1.157       .  T
C898        N900   1.157       .  T
C901        C902   1.406   1_655  A
C901       C2122   1.418       .  A
C902        C903   1.400       .  A
C902        H907   1.085       .  S
C903        C904   1.418       .  A
C903        C910   1.445       .  S
C904       C2121   1.406   1_455  A
C905       C2120   1.406       .  A
C905        C906   1.401       .  A
C905        H908   1.085       .  S
C906       C2117   1.418       .  A
C906        C909   1.445       .  S
C909        N911   1.158       .  T
C910        N912   1.157       .  T
O913        C923   1.276       .  A
O914        C924   1.275       .  A
O914       Cu921   1.994       .  S
O915        C925   1.279   1_455  A
O915       Cu921   2.011       .  S
O916        C926   1.278       .  A
O917       C2142   1.276       .  A
O917       Cu922   2.004       .  S
O918       C2141   1.276       .  A
O919       C2140   1.280       .  A
O920       C2139   1.279       .  A
O920       Cu922   2.012       .  S
Cu921     Cu1530   2.367   1_455  S
Cu922     Cu1529   2.367       .  S
C923       O2136   1.279   1_455  A
C923       C2400   1.492       .  S
C924       O2135   1.280   1_455  A
C924       C2388   1.489       .  S
C925       O2134   1.276       .  A
C925       C1205   1.493       .  S
C926       O2133   1.276   1_455  A
C926       C1196   1.472       .  S
O927        C937   1.277       .  A
O927       Cu935   2.007       .  S
O928        C938   1.278       .  A
O928       Cu935   2.012       .  S
O929        C939   1.277       .  A
O929       Cu935   2.002       .  S
O930        C940   1.276       .  A
O930       Cu935   2.002       .  S
O931       C2156   1.278       .  A
O931       Cu936   2.010       .  S
O932       C2155   1.279       .  A
O932       Cu936   2.011       .  S
O933       C2154   1.276       .  A
O933       Cu936   2.000       .  S
O934       C2153   1.277       .  A
O934       Cu936   2.008       .  S
Cu935     Cu2152   2.372   1_455  S
Cu936     Cu2151   2.372       .  S
C937       O2150   1.277   1_455  A
C937       C1148   1.470       .  S
C938       O2149   1.276   1_455  A
C938       C1157   1.472       .  S
C939       O2148   1.279   1_455  A
C939       C1208   1.493       .  S
C940       O2147   1.278   1_455  A
C940       C1193   1.471       .  S
O941        C951   1.277       .  A
O941       Cu949   2.005       .  S
O942        C952   1.277       .  A
O942       Cu949   2.010       .  S
O943        C953   1.278       .  A
O943       Cu949   2.007       .  S
O944        C954   1.277       .  A
O945        C954   1.279       .  A
O946        C953   1.278       .  A
O946       Cu950   2.009       .  S
O947        C952   1.276       .  A
O947       Cu950   2.004       .  S
O948        C951   1.278       .  A
O948       Cu950   2.009       .  S
Cu949      Cu950   2.373       .  S
C951       C1112   1.478       .  S
C952       C1100   1.468       .  S
C953       C1133   1.476       .  S
C954       C1124   1.488       .  S
O955        C965   1.276       .  A
O955       Cu963   2.005       .  S
O956        C966   1.277       .  A
O956       Cu963   2.000       .  S
O957        C967   1.279       .  A
O957       Cu963   2.016       .  S
O958        C968   1.278       .  A
O958       Cu963   2.007       .  S
O959        C968   1.278       .  A
O959       Cu964   2.008       .  S
O960        C967   1.277       .  A
O960       Cu964   2.003       .  S
O961        C966   1.279       .  A
O961       Cu964   2.017       .  S
O962        C965   1.278       .  A
O962       Cu964   2.010       .  S
Cu963      Cu964   2.373       .  S
C965       C1073   1.471       .  S
C966       C1085   1.486       .  S
C967       C1136   1.477       .  S
C968       C1121   1.487       .  S
O970       Cu977   2.004       .  S
O971       Cu977   2.008       .  S
O972      Cu1889   2.008   1_456  S
O973        C982   1.278       .  A
O973      Cu2194   2.008   1_455  S
O974        C981   1.277       .  A
O975        C980   1.277       .  A
O976        C979   1.277       .  A
O976       Cu978   2.008   1_556  S
Cu977      O1884   2.008       .  S
Cu978      O2189   2.008       .  S
C979       C1181   1.467       .  S
C980       C1169   1.467       .  S
C981       C1049   1.479       .  S
C982       C1064   1.478       .  S
O983        C993   1.278   1_455  A
O984        C994   1.278   1_455  A
O984       Cu991   2.008       .  S
O985      Cu2207   2.005       .  S
O986        C996   1.279       .  A
O987        C996   1.277   1_554  A
O987       Cu992   2.008   1_455  S
O988        C995   1.277       .  A
O988      Cu2208   2.008       .  S
O989        C994   1.279       .  A
O990        C993   1.278       .  A
O990       Cu992   2.010   1_556  S
Cu991      O2201   2.005   1_455  S
Cu992      O2204   2.008       .  S
C993       C1160   1.483   1_655  S
C994       C1145   1.489   1_655  S
C995       C1025   1.468       .  S
C996       C1040   1.487       .  S
O998      Cu1005   2.012       .  S
O999      Cu1005   2.009       .  S
O1001      C1010   1.278       .  A
O1001     Cu1006   2.009       .  S
O1002      C1009   1.277       .  A
O1003      C1008   1.277       .  A
O1004      C1007   1.277       .  A
O1004     Cu1006   2.004       .  S
C1007      C1109   1.476       .  S
C1008      C1097   1.493       .  S
C1009      C1061   1.477       .  S
C1010      C1052   1.479       .  S
O1011      C1021   1.277       .  A
O1012      C1022   1.278       .  A
O1012     Cu1019   2.009       .  S
O1013      C1023   1.277       .  A
O1013     Cu1019   2.000       .  S
O1014      C1024   1.277       .  A
O1015      C1024   1.277       .  A
O1015     Cu1020   2.008       .  S
O1016     Cu1020   2.014   1_554  S
O1017      C1022   1.278       .  A
O1018      C1021   1.277       .  A
O1018     Cu1020   2.010       .  S
C1021      C1088   1.472       .  S
C1022      C1076   1.485       .  S
C1024      C1028   1.470       .  S
C1025      C1026   1.401   1_554  A
C1026      C1027   1.400       .  A
C1026      H1031   1.085       .  S
C1027      C1028   1.409       .  A
C1027      C1034   1.443       .  S
C1029      C1030   1.401       .  A
C1029      H1032   1.085       .  S
C1030      C1033   1.444       .  S
C1033      N1035   1.157       .  T
C1034      N1036   1.157       .  T
C1037      C1038   1.405   1_554  A
C1038      C1039   1.401       .  A
C1038      H1043   1.085       .  S
C1039      C1040   1.416       .  A
C1039      C1046   1.444       .  S
C1041      C1042   1.400       .  A
C1041      H1044   1.085       .  S
C1042      C1045   1.444       .  S
C1045      N1047   1.157       .  T
C1046      N1048   1.157       .  T
C1050      C1051   1.400       .  A
C1050      H1055   1.085       .  S
C1051      C1052   1.413       .  A
C1051      C1058   1.444       .  S
C1053      C1054   1.400       .  A
C1053      H1056   1.085       .  S
C1054      C1057   1.445       .  S
C1057      N1059   1.157       .  T
C1058      N1060   1.157       .  T
C1061      C1062   1.403       .  A
C1062      C1063   1.400       .  A
C1062      H1067   1.085       .  S
C1063      C1070   1.445       .  S
C1065      C1066   1.401       .  A
C1065      H1068   1.085       .  S
C1066      C1069   1.445       .  S
C1069      N1071   1.157       .  T
C1070      N1072   1.157       .  T
C1073      C1074   1.399       .  A
C1073      C1078   1.408       .  A
C1074      C1075   1.399       .  A
C1074      H1079   1.086       .  S
C1075      C1076   1.417       .  A
C1075      C1082   1.444       .  S
C1076      C1077   1.407       .  A
C1077      C1078   1.401       .  A
C1077      H1080   1.086       .  S
C1078      C1081   1.445       .  S
C1081      N1083   1.157       .  T
C1082      N1084   1.157       .  T
C1085      C1086   1.407       .  A
C1085      C1090   1.418       .  A
C1086      C1087   1.402       .  A
C1086      H1091   1.085       .  S
C1087      C1088   1.409       .  A
C1087      C1094   1.445       .  S
C1088      C1089   1.399       .  A
C1089      C1090   1.399       .  A
C1089      H1092   1.085       .  S
C1090      C1093   1.444       .  S
C1093      N1095   1.157       .  T
C1094      N1096   1.157       .  T
C1097      C1102   1.421       .  A
C1098      C1099   1.400       .  A
C1098      H1103   1.084       .  S
C1099      C1106   1.445       .  S
C1100      C1101   1.398       .  A
C1101      C1102   1.401       .  A
C1101      H1104   1.085       .  S
C1102      C1105   1.444       .  S
C1105      N1107   1.157       .  T
C1106      N1108   1.157       .  T
C1109      C1114   1.412       .  A
C1110      C1111   1.401       .  A
C1110      H1115   1.085       .  S
C1111      C1118   1.444       .  S
C1112      C1113   1.404       .  A
C1113      C1114   1.400       .  A
C1113      H1116   1.085       .  S
C1114      C1117   1.445       .  S
C1117      N1119   1.157       .  T
C1118      N1120   1.157       .  T
C1121      C1122   1.405       .  A
C1121      C1126   1.415       .  A
C1122      C1123   1.400       .  A
C1122      H1127   1.085       .  S
C1123      C1124   1.416       .  A
C1123      C1130   1.444       .  S
C1124      C1125   1.406       .  A
C1125      C1126   1.400       .  A
C1125      H1128   1.085       .  S
C1126      C1129   1.445       .  S
C1129      N1131   1.157       .  T
C1130      N1132   1.157       .  T
C1133      C1134   1.402       .  A
C1133      C1138   1.411       .  A
C1134      C1135   1.400       .  A
C1134      H1139   1.085       .  S
C1135      C1136   1.412       .  A
C1135      C1142   1.444       .  S
C1136      C1137   1.403       .  A
C1137      C1138   1.401       .  A
C1137      H1140   1.085       .  S
C1138      C1141   1.444       .  S
C1141      N1143   1.157       .  T
C1142      N1144   1.157       .  T
C1145      C2362   1.409   1_455  A
C1145      C1150   1.419       .  A
C1146      C2361   1.409       .  A
C1146      C1147   1.400       .  A
C1146      H1151   1.084       .  S
C1147      C2364   1.407       .  A
C1147      C1154   1.445       .  S
C1148      C2363   1.407   1_455  A
C1148      C1149   1.399       .  A
C1149      C1150   1.401       .  A
C1149      H1152   1.085       .  S
C1150      C1153   1.444       .  S
C1153      N1155   1.157       .  T
C1154      N1156   1.157       .  T
C1157      C1158   1.401       .  A
C1157      C2378   1.409   1_455  A
C1158      C1159   1.400       .  A
C1158      H1163   1.085       .  S
C1159      C1160   1.415       .  A
C1159      C1166   1.443       .  S
C1160      C2377   1.406   1_455  A
C1161      C2376   1.406       .  A
C1161      C1162   1.400       .  A
C1161      H1164   1.085       .  S
C1162      C2373   1.409       .  A
C1162      C1165   1.445       .  S
C1165      N1167   1.157       .  T
C1166      N1168   1.157       .  T
C1169      C1778   1.397       .  A
C1169      C1174   1.407       .  A
C1170      C1777   1.397   1_465  A
C1170      C1171   1.399       .  A
C1170      H1175   1.086       .  S
C1171      C1780   1.421       .  A
C1171      C1178   1.444       .  S
C1172      C2140   1.489       .  S
C1172      C1779   1.421       .  A
C1172      C1173   1.408       .  A
C1173      C1174   1.401       .  A
C1173      H1176   1.084       .  S
C1174      C1177   1.445       .  S
C1177      N1179   1.157       .  T
C1178      N1180   1.158       .  T
C1181      C1790   1.397       .  A
C1181      C1186   1.406       .  A
C1182      C1789   1.397   1_445  A
C1182      C1183   1.400       .  A
C1182      H1187   1.086       .  S
C1183      C2400   1.422   1_545  A
C1183      C1190   1.444       .  S
C1184      C2139   1.492       .  S
C1184      C2399   1.422   1_565  A
C1185      C1186   1.400       .  A
C1185      H1188   1.084       .  S
C1186      C1189   1.444       .  S
C1189      N1191   1.157       .  T
C1190      N1192   1.157       .  T
C1193      C1194   1.402       .  A
C1193      C2414   1.410   1_455  A
C1194      C1195   1.399       .  A
C1194      H1199   1.085       .  S
C1195      C1196   1.410       .  A
C1195      C1202   1.443       .  S
C1196      C2413   1.403   1_455  A
C1197      C2412   1.403       .  A
C1197      C1198   1.401       .  A
C1197      H1200   1.085       .  S
C1198      C2409   1.410       .  A
C1198      C1201   1.445       .  S
C1201      N1203   1.157       .  T
C1202      N1204   1.157       .  T
C1205      C1206   1.406   1_655  A
C1205      C2426   1.418       .  A
C1206      C1207   1.400       .  A
C1206      H1211   1.085       .  S
C1207      C1208   1.418       .  A
C1207      C1214   1.445       .  S
C1208      C2425   1.406   1_455  A
C1209      C2424   1.406       .  A
C1209      C1210   1.401       .  A
C1209      H1212   1.085       .  S
C1210      C2421   1.418       .  A
C1210      C1213   1.445       .  S
C1213      N1215   1.158       .  T
C1214      N1216   1.157       .  T
O1217      C1227   1.276       .  A
O1217     Cu1833   2.001       .  S
O1218      C1228   1.275   1_545  A
O1218     Cu1225   1.994   1_545  S
O1219      C1229   1.279       .  A
O1219     Cu1225   2.011   1_545  S
O1220      C1230   1.278       .  A
O1220     Cu1833   2.011       .  S
O1221     Cu1226   2.004       .  S
O1222     Cu1834   2.003   1_545  S
O1223     Cu1834   2.018       .  S
O1224     Cu1226   2.012       .  S
Cu1225     O1825   2.001       .  S
Cu1225     O1828   2.011       .  S
Cu1226     O1830   2.003       .  S
Cu1226     O1831   2.018       .  S
C1229      C1509   1.493       .  S
C1230      C1500   1.472       .  S
O1231      C1241   1.277       .  A
O1231     Cu1239   2.007       .  S
O1232      C1242   1.278       .  A
O1232     Cu1239   2.012       .  S
O1233      C1243   1.277       .  A
O1233     Cu1239   2.002       .  S
O1234      C1244   1.276       .  A
O1234     Cu1239   2.002       .  S
O1235     Cu1240   2.010       .  S
O1236     Cu1240   2.011       .  S
O1237     Cu1240   2.000       .  S
O1238     Cu1240   2.008       .  S
C1241      C1452   1.470       .  S
C1242      C1461   1.472       .  S
C1243      C1512   1.493       .  S
C1244      C1497   1.471       .  S
O1245      C1255   1.277       .  A
O1245     Cu1253   2.005       .  S
O1246      C1256   1.277       .  A
O1246     Cu1253   2.010   1_545  S
O1247      C1257   1.278       .  A
O1247     Cu1253   2.007   1_545  S
O1248      C1258   1.277       .  A
O1248     Cu1861   2.006       .  S
O1249      C1258   1.279       .  A
O1249     Cu1862   2.009       .  S
O1250      C1257   1.278       .  A
O1250     Cu1254   2.009   1_545  S
O1251      C1256   1.276   1_565  A
O1251     Cu1254   2.004       .  S
O1252      C1255   1.278       .  A
O1252     Cu1254   2.009       .  S
Cu1253     O1856   2.006       .  S
Cu1253    Cu1254   2.373       .  S
Cu1254     O1857   2.009       .  S
C1255      C1416   1.478       .  S
C1256      C1404   1.468       .  S
C1257      C1437   1.476       .  S
C1258      C1428   1.488       .  S
O1259      C1269   1.276       .  A
O1259     Cu1267   2.005       .  S
O1260      C1270   1.277       .  A
O1260     Cu1267   2.000       .  S
O1261      C1271   1.279       .  A
O1261     Cu1267   2.016       .  S
O1262      C1272   1.278       .  A
O1262     Cu1267   2.007       .  S
O1263      C1272   1.278       .  A
O1263     Cu1268   2.008       .  S
O1264      C1271   1.277       .  A
O1264     Cu1268   2.003       .  S
O1265      C1270   1.279       .  A
O1265     Cu1268   2.017       .  S
O1266      C1269   1.278       .  A
O1266     Cu1268   2.010       .  S
Cu1267    Cu1268   2.373       .  S
C1269      C1377   1.471       .  S
C1270      C1389   1.486       .  S
C1271      C1440   1.477       .  S
C1272      C1425   1.487       .  S
O1273      C1891   1.276       .  A
O1273     Cu1585   2.005       .  S
O1274      C1892   1.276   1_455  A
O1274     Cu1281   2.004   1_455  S
O1275      C1893   1.278       .  A
O1275     Cu1281   2.008       .  S
O1276      C1894   1.278       .  A
O1277      C1286   1.278       .  A
O1278      C1285   1.277   1_556  A
O1278     Cu1586   2.003   1_556  S
O1279      C1284   1.277       .  A
O1279     Cu1586   2.006       .  S
O1280      C1283   1.277       .  A
O1280     Cu1282   2.008       .  S
Cu1281     O1577   2.005   1_554  S
Cu1281    Cu2194   2.376       .  S
Cu1282     O1582   2.003       .  S
Cu1282     O1583   2.006       .  S
Cu1282    Cu2193   2.376   1_545  S
C1283      O1881   1.276   1_545  A
C1283      C1485   1.467   1_545  S
C1284      O1882   1.276   1_645  A
C1284      C1473   1.467       .  S
C1285      O1883   1.278   1_545  A
C1285      C1353   1.479       .  S
C1286      O1884   1.278   1_545  A
C1286      C1368   1.478       .  S
O1287      C1297   1.278       .  A
O1287     Cu1599   2.006       .  S
O1288      C1298   1.278       .  A
O1288     Cu1295   2.008   1_554  S
O1289      C1603   1.276   1_556  A
O1290      C1300   1.279       .  A
O1290     Cu1599   2.008       .  S
O1291      C1300   1.277       .  A
O1291     Cu1296   2.008       .  S
O1292      C1299   1.277       .  A
O1293      C1298   1.279       .  A
O1293     Cu1600   2.008       .  S
O1294      C1297   1.278       .  A
O1294     Cu1296   2.010       .  S
Cu1295     O1591   2.006       .  S
Cu1295     O1594   2.008       .  S
Cu1295    Cu1600   2.371   1_556  S
Cu1296     O1597   2.008       .  S
Cu1296    Cu1599   2.371       .  S
C1297      C1464   1.483       .  S
C1298      C1449   1.489       .  S
C1299      O1593   1.276       .  A
C1299      C1329   1.468       .  S
C1300      C1344   1.487       .  S
O1301      C1919   1.278       .  A
O1301     Cu1613   2.009       .  S
O1302      C1920   1.279       .  A
O1302     Cu1309   2.012       .  S
O1303      C1921   1.278   1_556  A
O1303     Cu1309   2.009   1_556  S
O1304      C1922   1.277       .  A
O1304     Cu1613   2.003       .  S
O1305      C1314   1.278       .  A
O1305     Cu1310   2.009       .  S
O1306      C1313   1.277       .  A
O1306     Cu1614   2.006   1_554  S
O1307      C1312   1.277       .  A
O1307     Cu1614   2.005   1_554  S
O1308      C1311   1.277   1_545  A
O1308     Cu1310   2.004       .  S
Cu1309     O1605   2.009   1_554  S
Cu1309     O1608   2.003       .  S
Cu1309    Cu2222   2.370   1_554  S
Cu1310     O1610   2.006       .  S
Cu1310     O1611   2.005       .  S
Cu1310    Cu2221   2.370   1_545  S
C1311      O1909   1.278       .  A
C1311      C1413   1.476       .  S
C1312      O1910   1.279   1_545  A
C1312      C1401   1.493       .  S
C1313      O1911   1.278   1_544  A
C1313      C1365   1.477   1_554  S
C1314      O1912   1.277   1_545  A
C1314      C1356   1.479       .  S
O1315      C1325   1.277       .  A
O1315     Cu1627   2.006       .  S
O1316      C1326   1.278       .  A
O1316     Cu1323   2.009   1_554  S
O1317      C1327   1.277       .  A
O1317     Cu1323   2.000   1_554  S
O1318      C1328   1.277       .  A
O1318     Cu1627   2.011       .  S
O1319      C1328   1.277       .  A
O1319     Cu1324   2.008       .  S
O1320      C1631   1.279       .  A
O1320     Cu1324   2.014       .  S
O1321      C1326   1.278       .  A
O1321     Cu1628   2.007   1_554  S
O1322      C1325   1.277       .  A
O1322     Cu1324   2.010       .  S
Cu1323     O1619   2.006       .  S
Cu1323     O1622   2.011       .  S
Cu1323    Cu1628   2.373       .  S
Cu1324     O1625   2.007       .  S
Cu1324    Cu1627   2.373       .  S
C1325      C1392   1.472       .  S
C1326      C1380   1.485       .  S
C1327      O1624   1.279       .  A
C1327      C1645   1.487       .  S
C1328      C1332   1.470       .  S
C1329      C1330   1.401       .  A
C1329      C1638   1.409       .  A
C1330      C1331   1.400       .  A
C1330      H1335   1.085       .  S
C1331      C1332   1.409       .  A
C1331      C1338   1.443       .  S
C1332      C1637   1.403       .  A
C1333      C1636   1.403   1_554  A
C1333      C1334   1.401       .  A
C1333      H1336   1.085       .  S
C1334      C1633   1.409       .  A
C1334      C1337   1.444       .  S
C1337      N1339   1.157       .  T
C1338      N1340   1.157       .  T
C1341      C1631   1.487       .  S
C1341      C1342   1.405       .  A
C1341      C1650   1.416       .  A
C1342      C1343   1.401       .  A
C1342      H1347   1.085       .  S
C1343      C1344   1.416       .  A
C1343      C1350   1.444       .  S
C1344      C1649   1.405       .  A
C1345      C1648   1.405   1_554  A
C1345      C1346   1.400       .  A
C1345      H1348   1.085       .  S
C1346      C1645   1.416       .  A
C1346      C1349   1.444       .  S
C1349      N1351   1.157       .  T
C1350      N1352   1.157       .  T
C1353      C1658   1.404   1_554  A
C1353      C1966   1.412   1_545  A
C1354      C1657   1.404       .  A
C1354      C1355   1.400       .  A
C1354      H1359   1.085       .  S
C1355      C1356   1.413       .  A
C1355      C1362   1.444       .  S
C1356      C2269   1.404   1_545  A
C1357      C2268   1.404   1_554  A
C1357      C1358   1.400       .  A
C1357      H1360   1.085       .  S
C1358      C1961   1.412       .  A
C1358      C1361   1.445       .  S
C1361      N1363   1.157       .  T
C1362      N1364   1.157       .  T
C1365      C1366   1.403   1_556  A
C1365      C2282   1.412   1_545  A
C1366      C1367   1.400       .  A
C1366      H1371   1.085       .  S
C1367      C1672   1.413       .  A
C1367      C1374   1.445       .  S
C1368      C1671   1.413       .  A
C1368      C1977   1.404   1_545  A
C1369      C1976   1.404       .  A
C1369      C1370   1.401       .  A
C1369      H1372   1.085       .  S
C1370      C2277   1.412       .  A
C1370      C1373   1.445       .  S
C1373      N1375   1.157       .  T
C1374      N1376   1.157       .  T
C1377      C1378   1.399       .  A
C1377      C1382   1.408       .  A
C1378      C1379   1.399       .  A
C1378      H1383   1.086       .  S
C1379      C1380   1.417       .  A
C1379      C1386   1.444       .  S
C1380      C1381   1.407       .  A
C1381      C1382   1.401       .  A
C1381      H1384   1.086       .  S
C1382      C1385   1.445       .  S
C1385      N1387   1.157       .  T
C1386      N1388   1.157       .  T
C1389      C1390   1.407       .  A
C1389      C1394   1.418       .  A
C1390      C1391   1.402       .  A
C1390      H1395   1.085       .  S
C1391      C1392   1.409       .  A
C1391      C1398   1.445       .  S
C1392      C1393   1.399       .  A
C1393      C1394   1.399       .  A
C1393      H1396   1.085       .  S
C1394      C1397   1.444       .  S
C1397      N1399   1.157       .  T
C1398      N1400   1.157       .  T
C1401      C2010   1.410   1_545  A
C1401      C1406   1.421       .  A
C1402      C2009   1.410       .  A
C1402      C1403   1.400       .  A
C1402      H1407   1.084       .  S
C1403      C2012   1.406       .  A
C1403      C1410   1.445       .  S
C1404      C2011   1.406   1_545  A
C1404      C1405   1.398       .  A
C1405      C1406   1.401       .  A
C1405      H1408   1.085       .  S
C1406      C1409   1.444       .  S
C1409      N1411   1.157       .  T
C1410      N1412   1.157       .  T
C1413      C2022   1.403       .  A
C1413      C1418   1.412   1_565  A
C1414      C2021   1.403       .  A
C1414      C1415   1.401       .  A
C1414      H1419   1.085       .  S
C1415      C2024   1.413       .  A
C1415      C1422   1.444       .  S
C1416      C2023   1.413       .  A
C1416      C1417   1.404   1_565  A
C1417      C1418   1.400       .  A
C1417      H1420   1.085       .  S
C1418      C1421   1.445       .  S
C1421      N1423   1.157       .  T
C1422      N1424   1.157       .  T
C1425      C1426   1.405       .  A
C1425      C1430   1.415       .  A
C1426      C1427   1.400       .  A
C1426      H1431   1.085       .  S
C1427      C1428   1.416       .  A
C1427      C1434   1.444       .  S
C1428      C1429   1.406       .  A
C1429      C1430   1.400       .  A
C1429      H1432   1.085       .  S
C1430      C1433   1.445       .  S
C1433      N1435   1.157       .  T
C1434      N1436   1.157       .  T
C1437      C1438   1.402       .  A
C1437      C1442   1.411       .  A
C1438      C1439   1.400       .  A
C1438      H1443   1.085       .  S
C1439      C1440   1.412       .  A
C1439      C1446   1.444       .  S
C1440      C1441   1.403       .  A
C1441      C1442   1.401       .  A
C1441      H1444   1.085       .  S
C1442      C1445   1.444       .  S
C1445      N1447   1.157       .  T
C1446      N1448   1.157       .  T
C1449      C1454   1.419       .  A
C1450      C1451   1.400       .  A
C1450      H1455   1.084       .  S
C1451      C1458   1.445       .  S
C1452      C1453   1.399       .  A
C1453      C1454   1.401       .  A
C1453      H1456   1.085       .  S
C1454      C1457   1.444       .  S
C1457      N1459   1.157       .  T
C1458      N1460   1.157       .  T
C1461      C1462   1.401       .  A
C1462      C1463   1.400       .  A
C1462      H1467   1.085       .  S
C1463      C1464   1.415       .  A
C1463      C1470   1.443       .  S
C1465      C1466   1.400       .  A
C1465      H1468   1.085       .  S
C1466      C1469   1.445       .  S
C1469      N1471   1.157       .  T
C1470      N1472   1.157       .  T
C1473      C1478   1.407       .  A
C1474      C1475   1.399       .  A
C1474      H1479   1.086       .  S
C1475      C1482   1.444       .  S
C1476      C1477   1.408   1_465  A
C1477      C1478   1.401       .  A
C1477      H1480   1.084       .  S
C1478      C1481   1.445       .  S
C1481      N1483   1.157       .  T
C1482      N1484   1.158       .  T
C1485      C1490   1.406       .  A
C1486      C1487   1.400       .  A
C1486      H1491   1.086       .  S
C1487      C1494   1.444       .  S
C1488      C2097   1.410   1_455  A
C1489      C2096   1.410   1_655  A
C1489      C1490   1.400       .  A
C1489      H1492   1.084       .  S
C1490      C1493   1.444       .  S
C1493      N1495   1.157       .  T
C1494      N1496   1.157       .  T
C1497      C1498   1.402       .  A
C1498      C1499   1.399       .  A
C1498      H1503   1.085       .  S
C1499      C1500   1.410       .  A
C1499      C1506   1.443       .  S
C1501      C1502   1.401       .  A
C1501      H1504   1.085       .  S
C1502      C1505   1.445       .  S
C1505      N1507   1.157       .  T
C1506      N1508   1.157       .  T
C1509      C1510   1.406       .  A
C1510      C1511   1.400       .  A
C1510      H1515   1.085       .  S
C1511      C1512   1.418       .  A
C1511      C1518   1.445       .  S
C1513      C1514   1.401       .  A
C1513      H1516   1.085       .  S
C1514      C1517   1.445       .  S
C1517      N1519   1.158       .  T
C1518      N1520   1.157       .  T
O1521      C1531   1.276       .  A
O1521     Cu2137   2.001       .  S
O1522      C1532   1.275   1_545  A
O1522     Cu1529   1.994   1_545  S
O1523      C1533   1.279       .  A
O1523     Cu1529   2.011   1_545  S
O1524      C1534   1.278       .  A
O1524     Cu2137   2.011       .  S
O1525     Cu1530   2.004       .  S
O1526     Cu2138   2.003   1_545  S
O1527     Cu2138   2.018       .  S
O1528     Cu1530   2.012       .  S
Cu1529     O2129   2.001       .  S
Cu1529     O2132   2.011       .  S
Cu1530     O2134   2.003       .  S
Cu1530     O2135   2.018       .  S
C1533      C1813   1.493       .  S
C1534      C1804   1.472       .  S
O1535      C1545   1.277       .  A
O1535     Cu1543   2.007       .  S
O1536      C1546   1.278       .  A
O1536     Cu1543   2.012       .  S
O1537      C1547   1.277       .  A
O1537     Cu1543   2.002       .  S
O1538      C1548   1.276       .  A
O1538     Cu1543   2.002       .  S
O1539     Cu1544   2.010       .  S
O1540     Cu1544   2.011       .  S
O1541     Cu1544   2.000       .  S
O1542     Cu1544   2.008       .  S
C1545      C1756   1.470       .  S
C1546      C1765   1.472       .  S
C1547      C1816   1.493       .  S
C1548      C1801   1.471       .  S
O1549      C1559   1.277       .  A
O1549     Cu1557   2.005       .  S
O1550      C1560   1.277       .  A
O1550     Cu1557   2.010   1_545  S
O1551      C1561   1.278       .  A
O1551     Cu1557   2.007   1_545  S
O1552      C1562   1.277       .  A
O1552     Cu2165   2.006       .  S
O1553      C1562   1.279       .  A
O1553     Cu2166   2.009       .  S
O1554      C1561   1.278       .  A
O1554     Cu1558   2.009   1_545  S
O1555      C1560   1.276   1_565  A
O1555     Cu1558   2.004       .  S
O1556      C1559   1.278       .  A
O1556     Cu1558   2.009       .  S
Cu1557     O2160   2.006       .  S
Cu1557    Cu1558   2.373       .  S
Cu1558     O2161   2.009       .  S
C1559      C1720   1.478       .  S
C1560      C1708   1.468       .  S
C1561      C1741   1.476       .  S
C1562      C1732   1.488       .  S
O1563      C1573   1.276       .  A
O1563     Cu1571   2.005       .  S
O1564      C1574   1.277       .  A
O1564     Cu1571   2.000       .  S
O1565      C1575   1.279       .  A
O1565     Cu1571   2.016       .  S
O1566      C1576   1.278       .  A
O1566     Cu1571   2.007       .  S
O1567      C1576   1.278       .  A
O1567     Cu1572   2.008       .  S
O1568      C1575   1.277       .  A
O1568     Cu1572   2.003       .  S
O1569      C1574   1.279       .  A
O1569     Cu1572   2.017       .  S
O1570      C1573   1.278       .  A
O1570     Cu1572   2.010       .  S
Cu1571    Cu1572   2.373       .  S
C1573      C1681   1.471       .  S
C1574      C1693   1.486       .  S
C1575      C1744   1.477       .  S
C1576      C1729   1.487       .  S
O1577      C2195   1.276       .  A
O1578      C2196   1.276   1_455  A
O1578     Cu1585   2.004   1_455  S
O1579      C2197   1.278       .  A
O1579     Cu1585   2.008       .  S
O1580      C2198   1.278   1_556  A
O1581      C1590   1.278       .  A
O1582      C1589   1.277       .  A
O1583      C1588   1.277       .  A
O1584      C1587   1.277       .  A
O1584     Cu1586   2.008   1_556  S
Cu1585    Cu1890   2.376       .  S
Cu1586    Cu1889   2.376   1_545  S
C1587      O2185   1.276   1_545  A
C1587      C1789   1.467   1_545  S
C1588      O2186   1.276   1_645  A
C1588      C1777   1.467       .  S
C1589      O2187   1.278   1_545  A
C1589      C1657   1.479       .  S
C1590      O2188   1.278   1_544  A
C1590      C1672   1.478       .  S
O1591      C1601   1.278       .  A
O1592      C1602   1.278       .  A
O1592     Cu1599   2.008       .  S
O1594      C1604   1.279       .  A
O1595      C1604   1.277   1_554  A
O1595     Cu1600   2.008       .  S
O1596      C1603   1.277       .  A
O1597      C1602   1.279       .  A
O1598      C1601   1.278       .  A
O1598     Cu1600   2.010   1_556  S
C1601      C1768   1.483       .  S
C1602      C1753   1.489       .  S
C1603      C1633   1.468       .  S
C1604      C1648   1.487       .  S
O1605      C2223   1.278       .  A
O1606      C2224   1.279       .  A
O1606     Cu1613   2.012       .  S
O1607      C2225   1.278       .  A
O1607     Cu1613   2.009       .  S
O1608      C2226   1.277   1_554  A
O1609      C1618   1.278       .  A
O1609     Cu1614   2.009       .  S
O1610      C1617   1.277       .  A
O1611      C1616   1.277       .  A
O1612      C1615   1.277   1_545  A
O1612     Cu1614   2.004       .  S
Cu1613    Cu1918   2.370       .  S
Cu1614    Cu1917   2.370   1_546  S
C1615      O2213   1.278       .  A
C1615      C1717   1.476       .  S
C1616      O2214   1.279   1_545  A
C1616      C1705   1.493       .  S
C1617      O2215   1.278   1_545  A
C1617      C1669   1.477       .  S
C1618      O2216   1.277   1_546  A
C1618      C1660   1.479       .  S
O1619      C1629   1.277       .  A
O1620      C1630   1.278       .  A
O1620     Cu1627   2.009       .  S
O1621      C1631   1.277       .  A
O1621     Cu1627   2.000       .  S
O1622      C1632   1.277       .  A
O1623      C1632   1.277       .  A
O1623     Cu1628   2.008       .  S
O1624     Cu1628   2.014   1_554  S
O1625      C1630   1.278       .  A
O1626      C1629   1.277       .  A
O1626     Cu1628   2.010       .  S
C1629      C1696   1.472       .  S
C1630      C1684   1.485       .  S
C1632      C1636   1.470       .  S
C1633      C1634   1.401   1_554  A
C1634      C1635   1.400       .  A
C1634      H1639   1.085       .  S
C1635      C1636   1.409       .  A
C1635      C1642   1.443       .  S
C1637      C1638   1.401       .  A
C1637      H1640   1.085       .  S
C1638      C1641   1.444       .  S
C1641      N1643   1.157       .  T
C1642      N1644   1.157       .  T
C1645      C1646   1.405   1_554  A
C1646      C1647   1.401       .  A
C1646      H1651   1.085       .  S
C1647      C1648   1.416       .  A
C1647      C1654   1.444       .  S
C1649      C1650   1.400       .  A
C1649      H1652   1.085       .  S
C1650      C1653   1.444       .  S
C1653      N1655   1.157       .  T
C1654      N1656   1.157       .  T
C1657      C2270   1.412   1_545  A
C1658      C1659   1.400       .  A
C1658      H1663   1.085       .  S
C1659      C1660   1.413       .  A
C1659      C1666   1.444       .  S
C1660      C1965   1.404   1_546  A
C1661      C1964   1.404       .  A
C1661      C1662   1.400       .  A
C1661      H1664   1.085       .  S
C1662      C2265   1.412       .  A
C1662      C1665   1.445       .  S
C1665      N1667   1.157       .  T
C1666      N1668   1.157       .  T
C1669      C1670   1.403       .  A
C1669      C1978   1.412   1_545  A
C1670      C1671   1.400       .  A
C1670      H1675   1.085       .  S
C1671      C1678   1.445       .  S
C1672      C2281   1.404   1_544  A
C1673      C2280   1.404   1_556  A
C1673      C1674   1.401       .  A
C1673      H1676   1.085       .  S
C1674      C1973   1.412       .  A
C1674      C1677   1.445       .  S
C1677      N1679   1.157       .  T
C1678      N1680   1.157       .  T
C1681      C1682   1.399       .  A
C1681      C1686   1.408       .  A
C1682      C1683   1.399       .  A
C1682      H1687   1.086       .  S
C1683      C1684   1.417       .  A
C1683      C1690   1.444       .  S
C1684      C1685   1.407       .  A
C1685      C1686   1.401       .  A
C1685      H1688   1.086       .  S
C1686      C1689   1.445       .  S
C1689      N1691   1.157       .  T
C1690      N1692   1.157       .  T
C1693      C1694   1.407       .  A
C1693      C1698   1.418       .  A
C1694      C1695   1.402       .  A
C1694      H1699   1.085       .  S
C1695      C1696   1.409       .  A
C1695      C1702   1.445       .  S
C1696      C1697   1.399       .  A
C1697      C1698   1.399       .  A
C1697      H1700   1.085       .  S
C1698      C1701   1.444       .  S
C1701      N1703   1.157       .  T
C1702      N1704   1.157       .  T
C1705      C2314   1.410   1_545  A
C1705      C1710   1.421       .  A
C1706      C2313   1.410       .  A
C1706      C1707   1.400       .  A
C1706      H1711   1.084       .  S
C1707      C2316   1.406       .  A
C1707      C1714   1.445       .  S
C1708      C2315   1.406   1_545  A
C1708      C1709   1.398       .  A
C1709      C1710   1.401       .  A
C1709      H1712   1.085       .  S
C1710      C1713   1.444       .  S
C1713      N1715   1.157       .  T
C1714      N1716   1.157       .  T
C1717      C2326   1.403       .  A
C1717      C1722   1.412   1_565  A
C1718      C2325   1.403       .  A
C1718      C1719   1.401       .  A
C1718      H1723   1.085       .  S
C1719      C2328   1.413       .  A
C1719      C1726   1.444       .  S
C1720      C2327   1.413       .  A
C1720      C1721   1.404   1_565  A
C1721      C1722   1.400       .  A
C1721      H1724   1.085       .  S
C1722      C1725   1.445       .  S
C1725      N1727   1.157       .  T
C1726      N1728   1.157       .  T
C1729      C1730   1.405       .  A
C1729      C1734   1.415       .  A
C1730      C1731   1.400       .  A
C1730      H1735   1.085       .  S
C1731      C1732   1.416       .  A
C1731      C1738   1.444       .  S
C1732      C1733   1.406       .  A
C1733      C1734   1.400       .  A
C1733      H1736   1.085       .  S
C1734      C1737   1.445       .  S
C1737      N1739   1.157       .  T
C1738      N1740   1.157       .  T
C1741      C1742   1.402       .  A
C1741      C1746   1.411       .  A
C1742      C1743   1.400       .  A
C1742      H1747   1.085       .  S
C1743      C1744   1.412       .  A
C1743      C1750   1.444       .  S
C1744      C1745   1.403       .  A
C1745      C1746   1.401       .  A
C1745      H1748   1.085       .  S
C1746      C1749   1.444       .  S
C1749      N1751   1.157       .  T
C1750      N1752   1.157       .  T
C1753      C1758   1.419       .  A
C1754      C1755   1.400       .  A
C1754      H1759   1.084       .  S
C1755      C1762   1.445       .  S
C1756      C1757   1.399       .  A
C1757      C1758   1.401       .  A
C1757      H1760   1.085       .  S
C1758      C1761   1.444       .  S
C1761      N1763   1.157       .  T
C1762      N1764   1.157       .  T
C1765      C1766   1.401       .  A
C1766      C1767   1.400       .  A
C1766      H1771   1.085       .  S
C1767      C1768   1.415       .  A
C1767      C1774   1.443       .  S
C1769      C1770   1.400       .  A
C1769      H1772   1.085       .  S
C1770      C1773   1.445       .  S
C1773      N1775   1.157       .  T
C1774      N1776   1.157       .  T
C1777      C1782   1.407       .  A
C1778      C1779   1.399       .  A
C1778      H1783   1.086       .  S
C1779      C1786   1.444       .  S
C1780      C1781   1.408   1_465  A
C1781      C1782   1.401       .  A
C1781      H1784   1.084       .  S
C1782      C1785   1.445       .  S
C1785      N1787   1.157       .  T
C1786      N1788   1.158       .  T
C1789      C1794   1.406       .  A
C1790      C1791   1.400       .  A
C1790      H1795   1.086       .  S
C1791      C1798   1.444       .  S
C1792      C2401   1.410   1_455  A
C1793      C2400   1.410   1_655  A
C1793      C1794   1.400       .  A
C1793      H1796   1.084       .  S
C1794      C1797   1.444       .  S
C1797      N1799   1.157       .  T
C1798      N1800   1.157       .  T
C1801      C1802   1.402       .  A
C1802      C1803   1.399       .  A
C1802      H1807   1.085       .  S
C1803      C1804   1.410       .  A
C1803      C1810   1.443       .  S
C1805      C1806   1.401       .  A
C1805      H1808   1.085       .  S
C1806      C1809   1.445       .  S
C1809      N1811   1.157       .  T
C1810      N1812   1.157       .  T
C1813      C1814   1.406       .  A
C1814      C1815   1.400       .  A
C1814      H1819   1.085       .  S
C1815      C1816   1.418       .  A
C1815      C1822   1.445       .  S
C1817      C1818   1.401       .  A
C1817      H1820   1.085       .  S
C1818      C1821   1.445       .  S
C1821      N1823   1.158       .  T
C1822      N1824   1.157       .  T
O1825      C1835   1.276       .  A
O1826      C1836   1.275       .  A
O1826     Cu1833   1.994       .  S
O1827      C1837   1.279       .  A
O1827     Cu1833   2.011       .  S
O1828      C1838   1.278       .  A
O1829     Cu1834   2.004       .  S
O1832     Cu1834   2.012       .  S
C1837      C2117   1.493       .  S
C1838      C2108   1.472       .  S
O1839      C1849   1.277       .  A
O1839     Cu1847   2.007       .  S
O1840      C1850   1.278       .  A
O1840     Cu1847   2.012       .  S
O1841      C1851   1.277       .  A
O1841     Cu1847   2.002       .  S
O1842      C1852   1.276       .  A
O1842     Cu1847   2.002       .  S
O1843     Cu1848   2.010       .  S
O1844     Cu1848   2.011       .  S
O1845     Cu1848   2.000       .  S
O1846     Cu1848   2.008       .  S
C1849      C2060   1.470       .  S
C1850      C2069   1.472       .  S
C1851      C2120   1.493       .  S
C1852      C2105   1.471       .  S
O1853      C1863   1.277       .  A
O1853     Cu1861   2.005       .  S
O1854      C1864   1.277       .  A
O1854     Cu1861   2.010       .  S
O1855      C1865   1.278       .  A
O1855     Cu1861   2.007       .  S
O1856      C1866   1.277       .  A
O1857      C1866   1.279       .  A
O1858      C1865   1.278       .  A
O1858     Cu1862   2.009       .  S
O1859      C1864   1.276       .  A
O1859     Cu1862   2.004       .  S
O1860      C1863   1.278       .  A
O1860     Cu1862   2.009       .  S
Cu1861    Cu1862   2.373       .  S
C1863      C2024   1.478       .  S
C1864      C2012   1.468       .  S
C1865      C2045   1.476       .  S
C1866      C2036   1.488       .  S
O1867      C1877   1.276       .  A
O1867     Cu1875   2.005       .  S
O1868      C1878   1.277       .  A
O1868     Cu1875   2.000       .  S
O1869      C1879   1.279       .  A
O1869     Cu1875   2.016       .  S
O1870      C1880   1.278       .  A
O1870     Cu1875   2.007       .  S
O1871      C1880   1.278       .  A
O1871     Cu1876   2.008       .  S
O1872      C1879   1.277       .  A
O1872     Cu1876   2.003       .  S
O1873      C1878   1.279       .  A
O1873     Cu1876   2.017       .  S
O1874      C1877   1.278       .  A
O1874     Cu1876   2.010       .  S
Cu1875    Cu1876   2.373       .  S
C1877      C1985   1.471       .  S
C1878      C1997   1.486       .  S
C1879      C2048   1.477       .  S
C1880      C2033   1.487       .  S
O1881     Cu2193   2.005       .  S
O1882     Cu1889   2.004   1_455  S
O1883     Cu1889   2.008       .  S
O1885      C1894   1.278       .  A
O1886      C1893   1.277   1_556  A
O1886     Cu2194   2.003   1_556  S
O1887      C1892   1.277       .  A
O1887     Cu2194   2.006       .  S
O1888      C1891   1.277       .  A
O1888     Cu1890   2.008       .  S
Cu1889     O2185   2.005   1_554  S
Cu1890     O2190   2.003       .  S
Cu1890     O2191   2.006       .  S
C1891      C2093   1.467       .  S
C1892      C2081   1.467       .  S
C1893      C1961   1.479       .  S
C1894      C1976   1.478       .  S
O1895      C1905   1.278       .  A
O1895     Cu2207   2.006       .  S
O1896      C1906   1.278       .  A
O1896     Cu1903   2.008   1_554  S
O1897      C2211   1.276   1_556  A
O1898      C1908   1.279       .  A
O1898     Cu2207   2.008       .  S
O1899      C1908   1.277       .  A
O1899     Cu1904   2.008       .  S
O1900      C1907   1.277       .  A
O1901      C1906   1.279       .  A
O1901     Cu2208   2.008       .  S
O1902      C1905   1.278       .  A
O1902     Cu1904   2.010       .  S
Cu1903     O2199   2.006       .  S
Cu1903     O2202   2.008       .  S
Cu1903    Cu2208   2.371   1_556  S
Cu1904     O2205   2.008       .  S
Cu1904    Cu2207   2.371       .  S
C1905      C2072   1.483       .  S
C1906      C2057   1.489       .  S
C1907      O2201   1.276       .  A
C1907      C1937   1.468       .  S
C1908      C1952   1.487       .  S
O1909     Cu2221   2.009       .  S
O1910     Cu1917   2.012       .  S
O1911     Cu1917   2.009   1_556  S
O1912     Cu2221   2.003       .  S
O1913      C1922   1.278       .  A
O1913     Cu1918   2.009       .  S
O1914      C1921   1.277       .  A
O1914     Cu2222   2.006   1_554  S
O1915      C1920   1.277       .  A
O1915     Cu2222   2.005   1_554  S
O1916      C1919   1.277       .  A
O1916     Cu1918   2.004       .  S
Cu1917     O2213   2.009   1_554  S
Cu1917     O2216   2.003       .  S
Cu1918     O2218   2.006       .  S
Cu1918     O2219   2.005       .  S
C1919      C2021   1.476       .  S
C1920      C2009   1.493       .  S
C1921      C1973   1.477   1_554  S
C1922      C1964   1.479       .  S
O1923      C1933   1.277       .  A
O1923     Cu2235   2.006       .  S
O1924      C1934   1.278       .  A
O1924     Cu1931   2.009   1_554  S
O1925      C1935   1.277       .  A
O1925     Cu1931   2.000   1_554  S
O1926      C1936   1.277       .  A
O1926     Cu2235   2.011       .  S
O1927      C1936   1.277       .  A
O1927     Cu1932   2.008       .  S
O1928      C2239   1.279       .  A
O1928     Cu1932   2.014       .  S
O1929      C1934   1.278       .  A
O1929     Cu2236   2.007   1_554  S
O1930      C1933   1.277       .  A
O1930     Cu1932   2.010       .  S
Cu1931     O2227   2.006       .  S
Cu1931     O2230   2.011       .  S
Cu1931    Cu2236   2.373       .  S
Cu1932     O2233   2.007       .  S
Cu1932    Cu2235   2.373       .  S
C1933      C2000   1.472       .  S
C1934      C1988   1.485       .  S
C1935      O2232   1.279       .  A
C1935      C2253   1.487       .  S
C1936      C1940   1.470       .  S
C1937      C1938   1.401       .  A
C1937      C2246   1.409       .  A
C1938      C1939   1.400       .  A
C1938      H1943   1.085       .  S
C1939      C1940   1.409       .  A
C1939      C1946   1.443       .  S
C1940      C2245   1.403       .  A
C1941      C2244   1.403   1_554  A
C1941      C1942   1.401       .  A
C1941      H1944   1.085       .  S
C1942      C2241   1.409       .  A
C1942      C1945   1.444       .  S
C1945      N1947   1.157       .  T
C1946      N1948   1.157       .  T
C1949      C2239   1.487       .  S
C1949      C1950   1.405       .  A
C1949      C2258   1.416       .  A
C1950      C1951   1.401       .  A
C1950      H1955   1.085       .  S
C1951      C1952   1.416       .  A
C1951      C1958   1.444       .  S
C1952      C2257   1.405       .  A
C1953      C2256   1.405   1_554  A
C1953      C1954   1.400       .  A
C1953      H1956   1.085       .  S
C1954      C2253   1.416       .  A
C1954      C1957   1.444       .  S
C1957      N1959   1.157       .  T
C1958      N1960   1.157       .  T
C1961      C2266   1.404   1_554  A
C1962      C2265   1.404       .  A
C1962      C1963   1.400       .  A
C1962      H1967   1.085       .  S
C1963      C1964   1.413       .  A
C1963      C1970   1.444       .  S
C1965      C1966   1.400       .  A
C1965      H1968   1.085       .  S
C1966      C1969   1.445       .  S
C1969      N1971   1.157       .  T
C1970      N1972   1.157       .  T
C1973      C1974   1.403   1_556  A
C1974      C1975   1.400       .  A
C1974      H1979   1.085       .  S
C1975      C2280   1.413       .  A
C1975      C1982   1.445       .  S
C1976      C2279   1.413       .  A
C1977      C1978   1.401       .  A
C1977      H1980   1.085       .  S
C1978      C1981   1.445       .  S
C1981      N1983   1.157       .  T
C1982      N1984   1.157       .  T
C1985      C1986   1.399       .  A
C1985      C1990   1.408       .  A
C1986      C1987   1.399       .  A
C1986      H1991   1.086       .  S
C1987      C1988   1.417       .  A
C1987      C1994   1.444       .  S
C1988      C1989   1.407       .  A
C1989      C1990   1.401       .  A
C1989      H1992   1.086       .  S
C1990      C1993   1.445       .  S
C1993      N1995   1.157       .  T
C1994      N1996   1.157       .  T
C1997      C1998   1.407       .  A
C1997      C2002   1.418       .  A
C1998      C1999   1.402       .  A
C1998      H2003   1.085       .  S
C1999      C2000   1.409       .  A
C1999      C2006   1.445       .  S
C2000      C2001   1.399       .  A
C2001      C2002   1.399       .  A
C2001      H2004   1.085       .  S
C2002      C2005   1.444       .  S
C2005      N2007   1.157       .  T
C2006      N2008   1.157       .  T
C2009      C2014   1.421       .  A
C2010      C2011   1.400       .  A
C2010      H2015   1.084       .  S
C2011      C2018   1.445       .  S
C2012      C2013   1.398       .  A
C2013      C2014   1.401       .  A
C2013      H2016   1.085       .  S
C2014      C2017   1.444       .  S
C2017      N2019   1.157       .  T
C2018      N2020   1.157       .  T
C2021      C2026   1.412       .  A
C2022      C2023   1.401       .  A
C2022      H2027   1.085       .  S
C2023      C2030   1.444       .  S
C2024      C2025   1.404       .  A
C2025      C2026   1.400       .  A
C2025      H2028   1.085       .  S
C2026      C2029   1.445       .  S
C2029      N2031   1.157       .  T
C2030      N2032   1.157       .  T
C2033      C2034   1.405       .  A
C2033      C2038   1.415       .  A
C2034      C2035   1.400       .  A
C2034      H2039   1.085       .  S
C2035      C2036   1.416       .  A
C2035      C2042   1.444       .  S
C2036      C2037   1.406       .  A
C2037      C2038   1.400       .  A
C2037      H2040   1.085       .  S
C2038      C2041   1.445       .  S
C2041      N2043   1.157       .  T
C2042      N2044   1.157       .  T
C2045      C2046   1.402       .  A
C2045      C2050   1.411       .  A
C2046      C2047   1.400       .  A
C2046      H2051   1.085       .  S
C2047      C2048   1.412       .  A
C2047      C2054   1.444       .  S
C2048      C2049   1.403       .  A
C2049      C2050   1.401       .  A
C2049      H2052   1.085       .  S
C2050      C2053   1.444       .  S
C2053      N2055   1.157       .  T
C2054      N2056   1.157       .  T
C2057      C2062   1.419       .  A
C2058      C2059   1.400       .  A
C2058      H2063   1.084       .  S
C2059      C2066   1.445       .  S
C2060      C2061   1.399       .  A
C2061      C2062   1.401       .  A
C2061      H2064   1.085       .  S
C2062      C2065   1.444       .  S
C2065      N2067   1.157       .  T
C2066      N2068   1.157       .  T
C2069      C2070   1.401       .  A
C2070      C2071   1.400       .  A
C2070      H2075   1.085       .  S
C2071      C2072   1.415       .  A
C2071      C2078   1.443       .  S
C2073      C2074   1.400       .  A
C2073      H2076   1.085       .  S
C2074      C2077   1.445       .  S
C2077      N2079   1.157       .  T
C2078      N2080   1.157       .  T
C2081      C2086   1.407       .  A
C2082      C2083   1.399       .  A
C2082      H2087   1.086       .  S
C2083      C2090   1.444       .  S
C2084      C2085   1.408   1_455  A
C2085      C2086   1.401       .  A
C2085      H2088   1.084       .  S
C2086      C2089   1.445       .  S
C2089      N2091   1.157       .  T
C2090      N2092   1.158       .  T
C2093      C2098   1.406       .  A
C2094      C2095   1.400       .  A
C2094      H2099   1.086       .  S
C2095      C2102   1.444       .  S
C2097      C2098   1.400       .  A
C2097      H2100   1.084       .  S
C2098      C2101   1.444       .  S
C2101      N2103   1.157       .  T
C2102      N2104   1.157       .  T
C2105      C2106   1.402       .  A
C2106      C2107   1.399       .  A
C2106      H2111   1.085       .  S
C2107      C2108   1.410       .  A
C2107      C2114   1.443       .  S
C2109      C2110   1.401       .  A
C2109      H2112   1.085       .  S
C2110      C2113   1.445       .  S
C2113      N2115   1.157       .  T
C2114      N2116   1.157       .  T
C2117      C2118   1.406       .  A
C2118      C2119   1.400       .  A
C2118      H2123   1.085       .  S
C2119      C2120   1.418       .  A
C2119      C2126   1.445       .  S
C2121      C2122   1.401       .  A
C2121      H2124   1.085       .  S
C2122      C2125   1.445       .  S
C2125      N2127   1.158       .  T
C2126      N2128   1.157       .  T
O2129      C2139   1.276       .  A
O2130      C2140   1.275       .  A
O2130     Cu2137   1.994       .  S
O2131      C2141   1.279       .  A
O2131     Cu2137   2.011       .  S
O2132      C2142   1.278       .  A
O2133     Cu2138   2.004       .  S
O2136     Cu2138   2.012       .  S
C2141      C2421   1.493       .  S
C2142      C2412   1.472       .  S
O2143      C2153   1.277       .  A
O2143     Cu2151   2.007       .  S
O2144      C2154   1.278       .  A
O2144     Cu2151   2.012       .  S
O2145      C2155   1.277       .  A
O2145     Cu2151   2.002       .  S
O2146      C2156   1.276       .  A
O2146     Cu2151   2.002       .  S
O2147     Cu2152   2.010       .  S
O2148     Cu2152   2.011       .  S
O2149     Cu2152   2.000       .  S
O2150     Cu2152   2.008       .  S
C2153      C2364   1.470       .  S
C2154      C2373   1.472       .  S
C2155      C2424   1.493       .  S
C2156      C2409   1.471       .  S
O2157      C2167   1.277       .  A
O2157     Cu2165   2.005       .  S
O2158      C2168   1.277       .  A
O2158     Cu2165   2.010       .  S
O2159      C2169   1.278       .  A
O2159     Cu2165   2.007       .  S
O2160      C2170   1.277       .  A
O2161      C2170   1.279       .  A
O2162      C2169   1.278       .  A
O2162     Cu2166   2.009       .  S
O2163      C2168   1.276       .  A
O2163     Cu2166   2.004       .  S
O2164      C2167   1.278       .  A
O2164     Cu2166   2.009       .  S
Cu2165    Cu2166   2.373       .  S
C2167      C2328   1.478       .  S
C2168      C2316   1.468       .  S
C2169      C2349   1.476       .  S
C2170      C2340   1.488       .  S
O2171      C2181   1.276       .  A
O2171     Cu2179   2.005       .  S
O2172      C2182   1.277       .  A
O2172     Cu2179   2.000       .  S
O2173      C2183   1.279       .  A
O2173     Cu2179   2.016       .  S
O2174      C2184   1.278       .  A
O2174     Cu2179   2.007       .  S
O2175      C2184   1.278       .  A
O2175     Cu2180   2.008       .  S
O2176      C2183   1.277       .  A
O2176     Cu2180   2.003       .  S
O2177      C2182   1.279       .  A
O2177     Cu2180   2.017       .  S
O2178      C2181   1.278       .  A
O2178     Cu2180   2.010       .  S
Cu2179    Cu2180   2.373       .  S
C2181      C2289   1.471       .  S
C2182      C2301   1.486       .  S
C2183      C2352   1.477       .  S
C2184      C2337   1.487       .  S
O2186     Cu2193   2.004   1_455  S
O2187     Cu2193   2.008       .  S
O2189      C2198   1.278       .  A
O2190      C2197   1.277       .  A
O2191      C2196   1.277       .  A
O2192      C2195   1.277       .  A
O2192     Cu2194   2.008   1_556  S
C2195      C2397   1.467       .  S
C2196      C2385   1.467       .  S
C2197      C2265   1.479       .  S
C2198      C2280   1.478       .  S
O2199      C2209   1.278       .  A
O2200      C2210   1.278       .  A
O2200     Cu2207   2.008       .  S
O2202      C2212   1.279       .  A
O2203      C2212   1.277   1_554  A
O2203     Cu2208   2.008       .  S
O2204      C2211   1.277       .  A
O2205      C2210   1.279       .  A
O2206      C2209   1.278       .  A
O2206     Cu2208   2.010   1_556  S
C2209      C2376   1.483       .  S
C2210      C2361   1.489       .  S
C2211      C2241   1.468       .  S
C2212      C2256   1.487       .  S
O2214     Cu2221   2.012       .  S
O2215     Cu2221   2.009       .  S
O2217      C2226   1.278       .  A
O2217     Cu2222   2.009       .  S
O2218      C2225   1.277       .  A
O2219      C2224   1.277       .  A
O2220      C2223   1.277       .  A
O2220     Cu2222   2.004       .  S
C2223      C2325   1.476       .  S
C2224      C2313   1.493       .  S
C2225      C2277   1.477       .  S
C2226      C2268   1.479       .  S
O2227      C2237   1.277       .  A
O2228      C2238   1.278       .  A
O2228     Cu2235   2.009       .  S
O2229      C2239   1.277       .  A
O2229     Cu2235   2.000       .  S
O2230      C2240   1.277       .  A
O2231      C2240   1.277       .  A
O2231     Cu2236   2.008       .  S
O2232     Cu2236   2.014   1_554  S
O2233      C2238   1.278       .  A
O2234      C2237   1.277       .  A
O2234     Cu2236   2.010       .  S
C2237      C2304   1.472       .  S
C2238      C2292   1.485       .  S
C2240      C2244   1.470       .  S
C2241      C2242   1.401   1_554  A
C2242      C2243   1.400       .  A
C2242      H2247   1.085       .  S
C2243      C2244   1.409       .  A
C2243      C2250   1.443       .  S
C2245      C2246   1.401       .  A
C2245      H2248   1.085       .  S
C2246      C2249   1.444       .  S
C2249      N2251   1.157       .  T
C2250      N2252   1.157       .  T
C2253      C2254   1.405   1_554  A
C2254      C2255   1.401       .  A
C2254      H2259   1.085       .  S
C2255      C2256   1.416       .  A
C2255      C2262   1.444       .  S
C2257      C2258   1.400       .  A
C2257      H2260   1.085       .  S
C2258      C2261   1.444       .  S
C2261      N2263   1.157       .  T
C2262      N2264   1.157       .  T
C2266      C2267   1.400       .  A
C2266      H2271   1.085       .  S
C2267      C2268   1.413       .  A
C2267      C2274   1.444       .  S
C2269      C2270   1.400       .  A
C2269      H2272   1.085       .  S
C2270      C2273   1.445       .  S
C2273      N2275   1.157       .  T
C2274      N2276   1.157       .  T
C2277      C2278   1.403       .  A
C2278      C2279   1.400       .  A
C2278      H2283   1.085       .  S
C2279      C2286   1.445       .  S
C2281      C2282   1.401       .  A
C2281      H2284   1.085       .  S
C2282      C2285   1.445       .  S
C2285      N2287   1.157       .  T
C2286      N2288   1.157       .  T
C2289      C2290   1.399       .  A
C2289      C2294   1.408       .  A
C2290      C2291   1.399       .  A
C2290      H2295   1.086       .  S
C2291      C2292   1.417       .  A
C2291      C2298   1.444       .  S
C2292      C2293   1.407       .  A
C2293      C2294   1.401       .  A
C2293      H2296   1.086       .  S
C2294      C2297   1.445       .  S
C2297      N2299   1.157       .  T
C2298      N2300   1.157       .  T
C2301      C2302   1.407       .  A
C2301      C2306   1.418       .  A
C2302      C2303   1.402       .  A
C2302      H2307   1.085       .  S
C2303      C2304   1.409       .  A
C2303      C2310   1.445       .  S
C2304      C2305   1.399       .  A
C2305      C2306   1.399       .  A
C2305      H2308   1.085       .  S
C2306      C2309   1.444       .  S
C2309      N2311   1.157       .  T
C2310      N2312   1.157       .  T
C2313      C2318   1.421       .  A
C2314      C2315   1.400       .  A
C2314      H2319   1.084       .  S
C2315      C2322   1.445       .  S
C2316      C2317   1.398       .  A
C2317      C2318   1.401       .  A
C2317      H2320   1.085       .  S
C2318      C2321   1.444       .  S
C2321      N2323   1.157       .  T
C2322      N2324   1.157       .  T
C2325      C2330   1.412       .  A
C2326      C2327   1.401       .  A
C2326      H2331   1.085       .  S
C2327      C2334   1.444       .  S
C2328      C2329   1.404       .  A
C2329      C2330   1.400       .  A
C2329      H2332   1.085       .  S
C2330      C2333   1.445       .  S
C2333      N2335   1.157       .  T
C2334      N2336   1.157       .  T
C2337      C2338   1.405       .  A
C2337      C2342   1.415       .  A
C2338      C2339   1.400       .  A
C2338      H2343   1.085       .  S
C2339      C2340   1.416       .  A
C2339      C2346   1.444       .  S
C2340      C2341   1.406       .  A
C2341      C2342   1.400       .  A
C2341      H2344   1.085       .  S
C2342      C2345   1.445       .  S
C2345      N2347   1.157       .  T
C2346      N2348   1.157       .  T
C2349      C2350   1.402       .  A
C2349      C2354   1.411       .  A
C2350      C2351   1.400       .  A
C2350      H2355   1.085       .  S
C2351      C2352   1.412       .  A
C2351      C2358   1.444       .  S
C2352      C2353   1.403       .  A
C2353      C2354   1.401       .  A
C2353      H2356   1.085       .  S
C2354      C2357   1.444       .  S
C2357      N2359   1.157       .  T
C2358      N2360   1.157       .  T
C2361      C2366   1.419       .  A
C2362      C2363   1.400       .  A
C2362      H2367   1.084       .  S
C2363      C2370   1.445       .  S
C2364      C2365   1.399       .  A
C2365      C2366   1.401       .  A
C2365      H2368   1.085       .  S
C2366      C2369   1.444       .  S
C2369      N2371   1.157       .  T
C2370      N2372   1.157       .  T
C2373      C2374   1.401       .  A
C2374      C2375   1.400       .  A
C2374      H2379   1.085       .  S
C2375      C2376   1.415       .  A
C2375      C2382   1.443       .  S
C2377      C2378   1.400       .  A
C2377      H2380   1.085       .  S
C2378      C2381   1.445       .  S
C2381      N2383   1.157       .  T
C2382      N2384   1.157       .  T
C2385      C2390   1.407       .  A
C2386      C2387   1.399       .  A
C2386      H2391   1.086       .  S
C2387      C2394   1.444       .  S
C2388      C2389   1.408   1_455  A
C2389      C2390   1.401       .  A
C2389      H2392   1.084       .  S
C2390      C2393   1.445       .  S
C2393      N2395   1.157       .  T
C2394      N2396   1.158       .  T
C2397      C2402   1.406       .  A
C2398      C2399   1.400       .  A
C2398      H2403   1.086       .  S
C2399      C2406   1.444       .  S
C2401      C2402   1.400       .  A
C2401      H2404   1.084       .  S
C2402      C2405   1.444       .  S
C2405      N2407   1.157       .  T
C2406      N2408   1.157       .  T
C2409      C2410   1.402       .  A
C2410      C2411   1.399       .  A
C2410      H2415   1.085       .  S
C2411      C2412   1.410       .  A
C2411      C2418   1.443       .  S
C2413      C2414   1.401       .  A
C2413      H2416   1.085       .  S
C2414      C2417   1.445       .  S
C2417      N2419   1.157       .  T
C2418      N2420   1.157       .  T
C2421      C2422   1.406       .  A
C2422      C2423   1.400       .  A
C2422      H2427   1.085       .  S
C2423      C2424   1.418       .  A
C2423      C2430   1.445       .  S
C2425      C2426   1.401       .  A
C2425      H2428   1.085       .  S
C2426      C2429   1.445       .  S
C2429      N2431   1.158       .  T
C2430      N2432   1.157       .  T
