geometry optimzed in LAMMPS
_audit_creation_date              2020-11-30 
_audit_creation_method            'lammps2cif' 
_symmetry_space_group_name_H-M    'P1' 
_symmetry_Int_Tables_number       1 
_symmetry_cell_setting            triclinic 
loop_ 
_symmetry_equiv_pos_as_xyz 
  x,y,z 
_cell_length_a                    48.57755716 
_cell_length_b                    48.62848846456134 
_cell_length_c                    48.610893873066715 
_cell_angle_alpha                 89.98485731561965 
_cell_angle_beta                  89.9011712398199 
_cell_angle_gamma                 89.95054545968172 
loop_ 
_atom_site_label 
_atom_site_type_symbol 
_atom_site_fract_x 
_atom_site_fract_y 
_atom_site_fract_z 
_atom_site_charge 
O1          O  0.95348665  0.00469544  0.94794266    -0.77700
C2          C  0.02725809  0.95132843  0.94347249     0.83400
O3          O  0.96282092  0.96270781  0.03657624    -0.78800
O4          O  0.05891275  0.98006259  0.02561484    -0.80300
O5          O  0.03312973  0.06092091  0.97408867    -0.80100
O6          O  0.96509235  0.04839285  0.95543599    -0.78700
Zn7        Zn  0.97853302  0.98108389  0.97074392     1.55700
O8          O  0.06372861  0.02680370  0.97742454    -0.80100
Cd9        Cd  0.99575971  0.04309080  0.98573835     1.59700
Cd10       Cd  0.99067680  0.99530451  0.03350886     1.59600
O11         O  0.98395033  0.06356613  0.02157172    -0.80100
O12         O  0.00141187  0.00302919  0.99443340    -1.90600
Cd13       Cd  0.04111098  0.99259017  0.98889748     1.59900
O14         O  0.97468670  0.03031362  0.05166176    -0.80000
O15         O  0.04550266  0.96228442  0.95881632    -0.78700
C16         C  0.95026378  0.94968050  0.01757563     0.83800
C17         C  0.95017231  0.03028793  0.94354875     0.83500
O18         O  0.00184984  0.95746370  0.94595281    -0.77600
C19         C  0.05786439  0.05197158  0.97295421     0.84300
O20         O  0.95438040  0.95559136  0.99241063    -0.77700
C21         C  0.97593007  0.05574549  0.04536242     0.84400
C22         C  0.05028499  0.98049078  0.05039843     0.84800
O23         O  0.02538136  0.98613868  0.05650063    -0.80200
O24         O  0.99420018  0.29297457  0.30165754    -0.77700
C25         C  0.94928095  0.30494134  0.22578644     0.83400
O26         O  0.95243893  0.20444829  0.28173795    -0.78800
O27         O  0.98217828  0.22795004  0.18704777    -0.80300
O28         O  0.06027336  0.26629635  0.23108114    -0.80100
O29         O  0.03841506  0.28252922  0.29520379    -0.78700
Zn30       Zn  0.97248523  0.27127762  0.27390203     1.55700
O31         O  0.03116784  0.27355812  0.19635972    -0.80100
Cd32       Cd  0.03549042  0.25387349  0.26341055     1.59700
Cd33       Cd  0.98573371  0.20922163  0.25491043     1.59600
O34         O  0.05208104  0.21644556  0.27508474    -0.80100
O35         O  0.99641344  0.24904941  0.25104581    -1.90600
Cd36       Cd  0.99299701  0.26127385  0.21160716     1.59900
O37         O  0.01857930  0.18587896  0.26962540    -0.80000
O38         O  0.96382754  0.29293080  0.20742979    -0.78700
C39         C  0.93933337  0.22240009  0.29575150     0.83800
C40         C  0.01953031  0.29586224  0.30771333     0.83500
O41         O  0.95099118  0.29828358  0.25107832    -0.77600
C42         C  0.05552797  0.27284153  0.20615789     0.84300
O43         O  0.94527618  0.24786758  0.29442997    -0.77700
C44         C  0.04340584  0.19170511  0.27584721     0.84400
C45         C  0.97688927  0.20271702  0.19202133     0.84800
O46         O  0.97646661  0.19305380  0.21644188    -0.80200
O47         O  0.74921402  0.29294571  0.44864826    -0.77700
C48         C  0.80348596  0.30008880  0.51948660     0.83400
O49         O  0.78742319  0.20268186  0.45996523    -0.78800
O50         O  0.77286481  0.21949104  0.55669546    -0.80300
O51         O  0.69329963  0.27011025  0.53019780    -0.80100
O52         O  0.70574699  0.28858137  0.46262658    -0.78700
Zn53       Zn  0.77243055  0.27011711  0.47366030     1.55700
O54         O  0.72886657  0.26943594  0.55926009    -0.80100
Cd55       Cd  0.71030808  0.25786288  0.49270166     1.59700
Cd56       Cd  0.75631055  0.20815329  0.48924868     1.59600
O57         O  0.68823912  0.22280672  0.48125213    -0.80100
O58         O  0.75023456  0.24812287  0.49795433    -1.90600
Cd59       Cd  0.76214246  0.25580018  0.53676171     1.59900
O60         O  0.71974989  0.18965234  0.47686674    -0.80000
O61         O  0.79327078  0.28553174  0.53883469    -0.78700
C62         C  0.80120506  0.22086655  0.44695913     0.83800
C63         C  0.72386120  0.29919972  0.44675180     0.83500
O64         O  0.79675195  0.29621235  0.49449040    -0.77600
C65         C  0.70331780  0.27268419  0.55433855     0.84300
O66         O  0.79668797  0.24639174  0.45056337    -0.77700
C67         C  0.69476648  0.19782266  0.47628964     0.84400
C68         C  0.77245966  0.19428421  0.54939258     0.84800
O69         O  0.76721231  0.18728165  0.52467897    -0.80200
O70         O  0.79648897  0.99472038  0.79673975    -0.77700
C71         C  0.72474401  0.94118328  0.79934665     0.83400
O72         O  0.78925943  0.95894402  0.70501339    -0.78800
O73         O  0.68990318  0.97406736  0.72119340    -0.80300
O74         O  0.71999760  0.05354728  0.77182934    -0.80100
O75         O  0.78814134  0.03867480  0.78797016    -0.78700
Zn76       Zn  0.77227014  0.97214329  0.77216494     1.55700
O77         O  0.68877805  0.01993961  0.77000297    -0.80100
Cd78       Cd  0.75635938  0.03463480  0.75900325     1.59700
Cd79       Cd  0.75764929  0.98812538  0.70945117     1.59600
O80         O  0.76750683  0.05613752  0.72395940    -0.80100
O81         O  0.74917788  0.99498230  0.74946242    -1.90600
Cd82       Cd  0.70973318  0.98537926  0.75717839     1.59900
O83         O  0.76833686  0.02493195  0.69037050    -0.80000
O84         O  0.70586569  0.95426641  0.78663746    -0.78700
C85         C  0.80210538  0.94553949  0.72360595     0.83800
C86         C  0.80170657  0.02007148  0.80065660     0.83500
O87         O  0.75011459  0.94637329  0.79545764    -0.77600
C88         C  0.69518899  0.04505244  0.77381116     0.84300
O89         O  0.79716866  0.94894843  0.74906337    -0.77700
C90         C  0.77062548  0.04972165  0.69871470     0.84400
C91         C  0.69739764  0.97150583  0.69616482     0.84800
O92         O  0.72240921  0.97500648  0.68882588    -0.80200
O93         O  0.29630433  0.95266103  0.24605357    -0.77700
C94         C  0.30289784  0.02325364  0.29925605     0.83400
O95         O  0.20633969  0.96151562  0.28539322    -0.78800
O96         O  0.22270996  0.06061253  0.26940672    -0.80300
O97         O  0.26891449  0.03016689  0.18903130    -0.80100
O98         O  0.28901317  0.96490440  0.20252767    -0.78700
Zn99       Zn  0.27288624  0.97693997  0.26961546     1.55700
O100        O  0.27267917  0.06064889  0.22279118    -0.80100
Cd101      Cd  0.25797101  0.99391725  0.20820239     1.59700
Cd102      Cd  0.21032029  0.99292614  0.25620598     1.59600
O103        O  0.22297594  0.98066992  0.18817340    -0.80100
O104        O  0.25003773  0.00094759  0.24809389    -1.90600
Cd105      Cd  0.25871689  0.04018609  0.25759141     1.59900
O106        O  0.19015067  0.98263610  0.22004671    -0.80000
O107        O  0.28917217  0.04265057  0.28802005    -0.78700
C108        C  0.22509725  0.94879552  0.29867644     0.83800
C109        C  0.30123572  0.95025683  0.22048586     0.83500
O110        O  0.29821397  0.99820513  0.29352131    -0.77600
C111        C  0.27417002  0.05445716  0.19734318     0.84300
O112        O  0.25052091  0.95320969  0.29438382    -0.77700
C113        C  0.19778267  0.97868142  0.19522631     0.84400
C114        C  0.19777531  0.05298136  0.27295477     0.84800
O115        O  0.19031199  0.02800415  0.27016350    -0.80200
O116        O  0.04901365  0.54586735  0.49868358    -0.77700
C117        C  0.97649282  0.55292536  0.55219788     0.83400
O118        O  0.04055661  0.45818321  0.54099117    -0.78800
O119        O  0.94296765  0.47065202  0.52472081    -0.80300
O120        O  0.96991792  0.51945002  0.44291526    -0.80100
O121        O  0.03761570  0.53753304  0.45518192    -0.78700
Zn122      Zn  0.02396936  0.52414138  0.52285481     1.55700
O123        O  0.93938550  0.51808016  0.47732276    -0.80100
Cd124      Cd  0.00699089  0.50788813  0.46120374     1.59700
Cd125      Cd  0.01132823  0.46059179  0.50935333     1.59600
O126        O  0.01900799  0.47218089  0.44110471    -0.80100
O127        O  0.00113089  0.49992494  0.50137648    -1.90600
Cd128      Cd  0.96170149  0.50678619  0.51187277     1.59900
O129        O  0.02456686  0.44045559  0.47373743    -0.80000
O130        O  0.95811464  0.53719459  0.54203161    -0.78700
C131        C  0.05219959  0.47751139  0.55445912     0.83800
C132        C  0.05255090  0.54966858  0.47302844     0.83500
O133        O  0.00175449  0.55061311  0.54560565    -0.77600
C134        C  0.94527882  0.52141389  0.45195689     0.84300
O135        O  0.04738304  0.50267790  0.54908304    -0.77700
C136        C  0.02465922  0.44762662  0.44844893     0.84400
C137        C  0.95118934  0.44575070  0.52516402     0.84800
O138        O  0.97614867  0.43907001  0.52041098    -0.80200
O139        O  0.46029617  0.30261325  0.75252790    -0.77700
C140        C  0.44624506  0.22842804  0.79981373     0.83400
O141        O  0.54749930  0.28602766  0.79386474    -0.78800
O142        O  0.52669575  0.18936775  0.77366396    -0.80300
O143        O  0.48448848  0.22569501  0.69142387    -0.80100
O144        O  0.46849402  0.29319834  0.70857449    -0.78700
Zn145      Zn  0.48064543  0.27495167  0.77513977     1.55700
O146        O  0.48261681  0.19282404  0.72328349    -0.80100
Cd147      Cd  0.49610444  0.26044947  0.71320443     1.59700
Cd148      Cd  0.54278081  0.25731384  0.76211928     1.59600
O149        O  0.53257892  0.27072086  0.69442954    -0.80100
O150        O  0.50297414  0.25114446  0.75282447    -1.90600
Cd151      Cd  0.49260289  0.21176175  0.76016743     1.59900
O152        O  0.56464376  0.26903691  0.72721575    -0.80000
O153        O  0.45943895  0.20910016  0.78778619    -0.78700
C154        C  0.52898465  0.29906846  0.80723926     0.83800
C155        C  0.45693198  0.30781640  0.72710910     0.83500
O156        O  0.45279224  0.25353035  0.79640530    -0.77600
C157        C  0.48144519  0.20054174  0.69821699     0.84300
O158        O  0.50357184  0.29606718  0.80174042    -0.77700
C159        C  0.55755578  0.27217526  0.70214529     0.84400
C160        C  0.55210525  0.19565706  0.77600313     0.84800
O161        O  0.56063581  0.22029697  0.77316910    -0.80200
O162        O  0.80373507  0.75164635  0.96150761    -0.77700
C163        C  0.73186125  0.80354193  0.95236261     0.83400
O164        O  0.79153179  0.79078606  0.05055008    -0.78800
O165        O  0.69435011  0.77683034  0.03195615    -0.80300
O166        O  0.72427916  0.69399074  0.98385053    -0.80100
O167        O  0.79209072  0.70786839  0.96768487    -0.78700
Zn168      Zn  0.77794949  0.77471257  0.98357294     1.55700
O169        O  0.69304076  0.72770331  0.98601904    -0.80100
Cd170      Cd  0.76054455  0.71262909  0.99695343     1.59700
Cd171      Cd  0.76169423  0.76005802  0.04556955     1.59600
O172        O  0.77134367  0.69184999  0.03272024    -0.80100
O173        O  0.75381311  0.75254268  0.00573882    -1.90600
Cd174      Cd  0.71465302  0.76270125  0.99714842     1.59900
O175        O  0.77483319  0.72428838  0.06475596    -0.80000
O176        O  0.71246094  0.79206059  0.96587653    -0.78700
C177        C  0.80432742  0.80438833  0.03207585     0.83800
C178        C  0.80724640  0.72621876  0.95650408     0.83500
O179        O  0.75695945  0.79798019  0.95719135    -0.77600
C180        C  0.69950639  0.70258635  0.98203392     0.84300
O181        O  0.80050988  0.80007537  0.00658380    -0.77700
C182        C  0.77626108  0.69912673  0.05745932     0.84400
C183        C  0.70107098  0.77708595  0.05728775     0.84800
O184        O  0.72538212  0.77129731  0.06541064    -0.80200
O185        O  0.29843234  0.25896755  0.95394137    -0.77700
C186        C  0.22530638  0.31014924  0.95381427     0.83400
O187        O  0.28929083  0.29011580  0.04751977    -0.78800
O188        O  0.19024819  0.27146525  0.02964023    -0.80300
O189        O  0.22404620  0.19647347  0.97548403    -0.80100
O190        O  0.28969964  0.21444673  0.95996571    -0.78700
Zn191      Zn  0.27368657  0.27954872  0.97976701     1.55700
O192        O  0.19159468  0.22851861  0.97650129    -0.80100
Cd193      Cd  0.25899510  0.21615621  0.98981021     1.59700
Cd194      Cd  0.25874298  0.26055421  0.04100576     1.59600
O195        O  0.27051347  0.19354773  0.02381712    -0.80100
O196        O  0.25069549  0.25501704  0.00082395    -1.90600
Cd197      Cd  0.21088540  0.26294972  0.99303769     1.59900
O198        O  0.27086884  0.22371792  0.05849081    -0.80000
O199        O  0.20678693  0.29587025  0.96579018    -0.78700
C200        C  0.30246813  0.30424923  0.02975317     0.83800
C201        C  0.30292760  0.23383211  0.94821519     0.83500
O202        O  0.25082283  0.30560211  0.95763503    -0.77600
C203        C  0.19913498  0.20382742  0.97177786     0.84300
O204        O  0.29806879  0.30189344  0.00410066    -0.77700
C205        C  0.27351199  0.19935387  0.04919114     0.84400
C206        C  0.19781422  0.27362584  0.05469874     0.84800
O207        O  0.22296495  0.27119706  0.06184833    -0.80200
O208        O  0.74961590  0.45215391  0.29942442    -0.77700
C209        C  0.79689104  0.44360308  0.22418800     0.83400
O210        O  0.78907587  0.54049027  0.28984353    -0.78800
O211        O  0.76723519  0.52291432  0.19094851    -0.80300
O212        O  0.68575619  0.47950539  0.22801633    -0.80100
O213        O  0.70553030  0.46335668  0.29414089    -0.78700
Zn214      Zn  0.77195872  0.47439801  0.27318587     1.55700
O215        O  0.71623166  0.47917745  0.19372444    -0.80100
Cd216      Cd  0.70887118  0.49166165  0.26197186     1.59700
Cd217      Cd  0.75902408  0.53725204  0.25905522     1.59600
O218        O  0.69073907  0.52839990  0.27358004    -0.80100
O219        O  0.74855671  0.49788136  0.25157446    -1.90600
Cd220      Cd  0.75397532  0.48840583  0.21174434     1.59900
O221        O  0.72428349  0.55956479  0.27034883    -0.80000
O222        O  0.78294130  0.45664026  0.20611472    -0.78700
C223        C  0.80261910  0.52131341  0.30162995     0.83800
C224        C  0.72445267  0.44978856  0.30631005     0.83500
O225        O  0.79421309  0.44871892  0.24973118    -0.77600
C226        C  0.69153180  0.47696207  0.20251851     0.84300
O227        O  0.79816056  0.49611991  0.29624665    -0.77700
C228        C  0.69916872  0.55318498  0.27471998     0.84400
C229        C  0.77328265  0.54742696  0.19793846     0.84800
O230        O  0.77274958  0.55555513  0.22289820    -0.80200
O231        O  0.44776439  0.94942822  0.50266243    -0.77700
C232        C  0.44462182  0.02166416  0.44973328     0.83400
O233        O  0.53838964  0.95443156  0.46540964    -0.78800
O234        O  0.52810171  0.05334872  0.47811512    -0.80300
O235        O  0.47675197  0.02882418  0.55939786    -0.80100
O236        O  0.45206597  0.96370471  0.54594734    -0.78700
Zn237      Zn  0.47227139  0.97347198  0.47944538     1.55700
O238        O  0.48060336  0.05899695  0.52498974    -0.80100
Cd239      Cd  0.48517927  0.99106089  0.54126041     1.59700
Cd240      Cd  0.53543127  0.98553950  0.49539346     1.59600
O241        O  0.51869203  0.97627004  0.56316473    -0.80100
O242        O  0.49587921  0.99641438  0.50155852    -1.90600
Cd243      Cd  0.49075759  0.03599235  0.49052067     1.59900
O244        O  0.55264940  0.97265156  0.53240053    -0.80000
O245        O  0.45985292  0.04019242  0.46050530    -0.78700
C246        C  0.51950791  0.94272420  0.45132672     0.83800
C247        C  0.44095949  0.94817880  0.52793295     0.83500
O248        O  0.44768793  0.99635927  0.45567419    -0.77600
C249        C  0.47685402  0.05347078  0.55038262     0.84300
O250        O  0.49428611  0.94896273  0.45474533    -0.77700
C251        C  0.54372708  0.97107853  0.55708229     0.84400
C252        C  0.55299534  0.04482580  0.47835364     0.84800
O253        O  0.55889005  0.01983705  0.48400919    -0.80200
O254        O  0.00163658  0.69848246  0.70753559    -0.77700
C255        C  0.04914071  0.77248706  0.69996597     0.83400
O256        O  0.03870099  0.70524613  0.79606843    -0.78800
O257        O  0.02535643  0.80428917  0.78348495    -0.80300
O258        O  0.94174825  0.77445461  0.73232070    -0.80100
O259        O  0.95748879  0.70734639  0.71499369    -0.78700
Zn260      Zn  0.02380478  0.72413478  0.73033054     1.55700
O261        O  0.97334555  0.80717108  0.73906916    -0.80100
Cd262      Cd  0.96158030  0.73852167  0.74449197     1.59700
Cd263      Cd  0.00892538  0.73639872  0.79334210     1.59600
O264        O  0.94090732  0.72647880  0.77963686    -0.80100
O265        O  0.00111813  0.74632645  0.75397018    -1.90600
Cd266      Cd  0.00978566  0.78623466  0.74770663     1.59900
O267        O  0.97271660  0.72469819  0.81266596    -0.80000
O268        O  0.03739902  0.79083339  0.71473264    -0.78700
C269        C  0.05331991  0.69464478  0.77694302     0.83800
C270        C  0.97637627  0.69350632  0.70304683     0.83500
O271        O  0.04543566  0.74699304  0.70428571    -0.77600
C272        C  0.94883594  0.79971827  0.73322036     0.84300
O273        O  0.04987317  0.70100581  0.75181954    -0.77700
C274        C  0.94779053  0.72275470  0.80465481     0.84400
C275        C  0.02726901  0.79580290  0.80828382     0.84800
O276        O  0.02201723  0.77097144  0.81499635    -0.80200
O277        O  0.45519739  0.80112977  0.25280333    -0.77700
C278        C  0.44615322  0.72892059  0.30158760     0.83400
O279        O  0.54587505  0.78781583  0.28839474    -0.78800
O280        O  0.52397588  0.69072380  0.27068817    -0.80300
O281        O  0.48089142  0.72598511  0.18954364    -0.80100
O282        O  0.45720738  0.78983086  0.20897743    -0.78700
Zn283      Zn  0.47836386  0.77538964  0.27426209     1.55700
O284        O  0.47768706  0.69294882  0.22135912    -0.80100
Cd285      Cd  0.48969593  0.76150618  0.21159205     1.59700
Cd286      Cd  0.53932699  0.75796351  0.25781300     1.59600
O287        O  0.52384573  0.77800921  0.19236277    -0.80100
O288        O  0.49912489  0.75167618  0.25061282    -1.90600
Cd289      Cd  0.48914195  0.71225508  0.25804869     1.59900
O290        O  0.55814727  0.77056517  0.22168181    -0.80000
O291        O  0.45791826  0.70963313  0.28807021    -0.78700
C292        C  0.52799969  0.80207234  0.30138891     0.83800
C293        C  0.44714729  0.80458137  0.22824802     0.83500
O294        O  0.45261494  0.75403665  0.29819277    -0.77600
C295        C  0.47699295  0.70092452  0.19631237     0.84300
O296        O  0.50235039  0.79870237  0.29768773    -0.77700
C297        C  0.54943128  0.77813995  0.19811487     0.84400
C298        C  0.54948401  0.69682075  0.27250099     0.84800
O299        O  0.55818513  0.72125375  0.26852369    -0.80200
O300        O  0.19817790  0.74961034  0.54771670    -0.77700
C301        C  0.19293536  0.69864841  0.47395143     0.83400
O302        O  0.28807020  0.71218122  0.53717306    -0.78800
O303        O  0.27445326  0.72841320  0.44103244    -0.80300
O304        O  0.22059983  0.80860950  0.46794216    -0.80100
O305        O  0.20244232  0.79362161  0.53611209    -0.78700
Zn306      Zn  0.22129003  0.72764975  0.52183036     1.55700
O307        O  0.22602021  0.77518092  0.43701168    -0.80100
Cd308      Cd  0.23237278  0.79025050  0.50499198     1.59700
Cd309      Cd  0.28340454  0.74520657  0.50923464     1.59600
O310        O  0.26641947  0.81261467  0.51726680    -0.80100
O311        O  0.24368353  0.75090469  0.49893073    -1.90600
Cd312      Cd  0.23765404  0.74064996  0.45931728     1.59900
O313        O  0.30000753  0.78194226  0.52430479    -0.80000
O314        O  0.20735480  0.71038981  0.45536921    -0.78700
C315        C  0.26950040  0.69751994  0.54874647     0.83800
C316        C  0.19227112  0.77481918  0.55144571     0.83500
O317        O  0.19647903  0.70397108  0.49931775    -0.77600
C318        C  0.22070153  0.80016356  0.44303862     0.84300
O319        O  0.24413601  0.70228677  0.54448224    -0.77700
C320        C  0.29105456  0.80667983  0.52408686     0.84400
C321        C  0.29941461  0.73028041  0.44896818     0.84800
O322        O  0.30579978  0.73673975  0.47360970    -0.80200
O323        O  0.30193000  0.45206339  0.74999685    -0.77700
C324        C  0.30563218  0.52560863  0.80034783     0.83400
O325        O  0.21067624  0.45895236  0.78669111    -0.78800
O326        O  0.22419321  0.55749216  0.77107950    -0.80300
O327        O  0.27525661  0.52823390  0.68998804    -0.80100
O328        O  0.29547546  0.46312220  0.70596558    -0.78700
Zn329      Zn  0.27726384  0.47681951  0.77240842     1.55700
O330        O  0.27255395  0.56012078  0.72278959    -0.80100
Cd331      Cd  0.26386386  0.49208571  0.70959248     1.59700
Cd332      Cd  0.21480182  0.48922264  0.75630572     1.59600
O333        O  0.22910109  0.47936308  0.68828021    -0.80100
O334        O  0.25433014  0.49926375  0.74923136    -1.90600
Cd335      Cd  0.26082880  0.53914412  0.75822599     1.59900
O336        O  0.19595777  0.47711517  0.72005660    -0.80000
O337        O  0.29158190  0.54401453  0.78795672    -0.78700
C338        C  0.22941180  0.44747297  0.80107272     0.83800
C339        C  0.30762439  0.44915014  0.72457540     0.83500
O340        O  0.30147341  0.50014777  0.79599209    -0.77600
C341        C  0.27672295  0.55322769  0.69777644     0.84300
O342        O  0.25468575  0.45335558  0.79753319    -0.77700
C343        C  0.20405648  0.47534632  0.69514036     0.84400
C344        C  0.19944351  0.54878212  0.77262706     0.84800
O345        O  0.19307226  0.52377609  0.76811662    -0.80200
O346        O  0.50262589  0.45804622  0.94519751    -0.77700
C347        C  0.44884841  0.44895348  0.01641301     0.83400
O348        O  0.46329999  0.54782731  0.95931586    -0.78800
O349        O  0.47687726  0.52769791  0.05543743    -0.80300
O350        O  0.55958230  0.48432496  0.02479157    -0.80100
O351        O  0.54589871  0.46341338  0.95910836    -0.78700
Zn352      Zn  0.47920607  0.48030426  0.97086347     1.55700
O353        O  0.52545948  0.48118629  0.05559466    -0.80100
Cd354      Cd  0.54067409  0.49445872  0.98813815     1.59700
Cd355      Cd  0.49399758  0.54258355  0.98894228     1.59600
O356        O  0.56108392  0.52922601  0.97438848    -0.80100
O357        O  0.50090382  0.50248017  0.99540210    -1.90600
Cd358      Cd  0.49045446  0.49306443  0.03427378     1.59900
O359        O  0.52985451  0.56239366  0.97696918    -0.80000
O360        O  0.46005554  0.46261817  0.03582555    -0.78700
C361        C  0.44971577  0.52974910  0.94597761     0.83800
C362        C  0.52812484  0.45230406  0.94336595     0.83500
O363        O  0.45545033  0.45362769  0.99152354    -0.77600
C364        C  0.55095845  0.48034641  0.04927061     0.84300
O365        O  0.45411412  0.50410839  0.94879524    -0.77700
C366        C  0.55448378  0.55451000  0.97239902     0.84400
C367        C  0.47677378  0.55328713  0.04963319     0.84800
O368        O  0.48282332  0.56173499  0.02551805    -0.80200
C369        C  0.34420201  0.55942120  0.86012622    -0.04600
C370        C  0.36760635  0.54231613  0.86187913     0.09500
C371        C  0.37168169  0.52149472  0.84209832    -0.02000
C372        C  0.35241001  0.51758120  0.82088592    -0.00300
C373        C  0.32778774  0.53327096  0.82019481    -0.03900
C374        C  0.32405715  0.55463204  0.83970126     0.03100
C375        C  0.38718596  0.54451041  0.88552924     0.10000
C376        C  0.39525807  0.50321913  0.84430715     0.35900
C377        C  0.29892757  0.57075017  0.83983717     0.39300
C378        C  0.38028839  0.53229609  0.91096454    -0.04300
C379        C  0.40046663  0.52916289  0.93149319     0.02900
C380        C  0.42771978  0.53809455  0.92668530    -0.03900
C381        C  0.43425010  0.55176554  0.90190689    -0.00100
C382        C  0.41389382  0.55528521  0.88151371    -0.02700
C383        C  0.35269481  0.52176345  0.91547533     0.36600
C384        C  0.46239692  0.56019895  0.89651685     0.40200
C385        C  0.39343063  0.51591916  0.95735809     0.39400
C386        C  0.42060028  0.56901979  0.85587271     0.36300
C387        C  0.34063732  0.58151839  0.87987750     0.37000
C388        C  0.35824192  0.49745277  0.79954143     0.40200
N389        N  0.38790523  0.50536154  0.97795389    -0.37900
N390        N  0.33067936  0.51345901  0.91904351    -0.39400
N391        N  0.48488726  0.56666114  0.89214950    -0.37200
N392        N  0.42585955  0.58001616  0.83544270    -0.39600
N393        N  0.41391453  0.48856213  0.84623554    -0.39400
N394        N  0.36291779  0.48150622  0.78250999    -0.37000
N395        N  0.27889241  0.58361476  0.84014509    -0.38000
N396        N  0.33793199  0.59912122  0.89563172    -0.39700
C397        C  0.30288523  0.65572870  0.60691701    -0.04600
C398        C  0.28447544  0.63341385  0.60911465     0.09500
C399        C  0.26310708  0.63064557  0.58975276    -0.02000
C400        C  0.25929497  0.65069123  0.56913049    -0.00300
C401        C  0.27667239  0.67421462  0.56778335    -0.03900
C402        C  0.29918872  0.67596243  0.58626614     0.03100
C403        C  0.28546619  0.61429436  0.63335891     0.10000
C404        C  0.24418962  0.60760250  0.59190490     0.35900
C405        C  0.31782177  0.69921048  0.58511872     0.39300
C406        C  0.26781012  0.61908642  0.65591650    -0.04300
C407        C  0.26575713  0.59969530  0.67739365     0.02900
C408        C  0.28155637  0.57515006  0.67668791    -0.03900
C409        C  0.30012708  0.57094515  0.65450854    -0.00100
C410        C  0.30204186  0.59046493  0.63299142    -0.02700
C411        C  0.25094459  0.64374601  0.65644867     0.36600
C412        C  0.31733888  0.54656057  0.65371605     0.40200
C413        C  0.24593969  0.60444647  0.69931773     0.39400
C414        C  0.32069244  0.58580049  0.61010811     0.36300
C415        C  0.32486554  0.65850479  0.62688999     0.37000
C416        C  0.23715964  0.64689647  0.54939815     0.40200
N417        N  0.23014251  0.60823397  0.71673053    -0.37900
N418        N  0.23748950  0.66337756  0.65673608    -0.39400
N419        N  0.33105318  0.52711549  0.65292364    -0.37200
N420        N  0.33562959  0.58205907  0.59195244    -0.39600
N421        N  0.22904252  0.58935819  0.59380131    -0.39400
N422        N  0.21940927  0.64384989  0.53387110    -0.37000
N423        N  0.33279447  0.71767758  0.58422784    -0.38000
N424        N  0.34228055  0.66069226  0.64291299    -0.39700
C425        C  0.44710803  0.64184454  0.15388577    -0.04600
C426        C  0.46709201  0.63912381  0.13291722     0.09500
C427        C  0.48965759  0.65736897  0.13225500    -0.02000
C428        C  0.49281067  0.67748887  0.15291802    -0.00300
C429        C  0.47294733  0.68014596  0.17411826    -0.03900
C430        C  0.45002794  0.66224966  0.17441938     0.03100
C431        C  0.46576077  0.61594827  0.11252233     0.10000
C432        C  0.51001803  0.65497149  0.11046003     0.35900
C433        C  0.42937685  0.66494676  0.19584208     0.39300
C434        C  0.45638367  0.62061445  0.08549567    -0.04300
C435        C  0.45873596  0.59983469  0.06528614     0.02900
C436        C  0.47080356  0.57401673  0.07183345    -0.03900
C437        C  0.47908081  0.56909788  0.09946863    -0.00100
C438        C  0.47642340  0.58991269  0.11958897    -0.02700
C439        C  0.44485676  0.64721348  0.07835360     0.36600
C440        C  0.49196432  0.54325784  0.10722657     0.40200
C441        C  0.44872844  0.60527361  0.03769486     0.39400
C442        C  0.48572011  0.58497676  0.14753899     0.36300
C443        C  0.42356106  0.62354505  0.15428634     0.37000
C444        C  0.51765204  0.69404420  0.15343002     0.40200
N445        N  0.44088506  0.60963615  0.01566153    -0.37900
N446        N  0.43572222  0.66841031  0.07263048    -0.39400
N447        N  0.50226398  0.52277345  0.11356145    -0.37200
N448        N  0.49306863  0.58112023  0.16983133    -0.39600
N449        N  0.52606216  0.65306274  0.09296787    -0.39400
N450        N  0.53774314  0.70677192  0.15391758    -0.37000
N451        N  0.41300907  0.66717338  0.21299703    -0.38000
N452        N  0.40475531  0.60899273  0.15459382    -0.39700
C453        C  0.40938852  0.70779321  0.36757998    -0.04600
C454        C  0.38342834  0.72041016  0.36382888     0.09500
C455        C  0.37731152  0.73301776  0.33838679    -0.02000
C456        C  0.39739904  0.73426929  0.31744483    -0.00300
C457        C  0.42383127  0.72285135  0.32164999    -0.03900
C458        C  0.42953356  0.70897967  0.34653460     0.03100
C459        C  0.36296160  0.72201776  0.38701164     0.10000
C460        C  0.35045860  0.74539075  0.33410095     0.35900
C461        C  0.45662086  0.69725989  0.35101984     0.39300
C462        C  0.35960118  0.74692660  0.40160507    -0.04300
C463        C  0.33918192  0.74930872  0.42214967     0.02900
C464        C  0.32181488  0.72679942  0.42833027    -0.03900
C465        C  0.32514025  0.70188105  0.41375003    -0.00100
C466        C  0.34577782  0.69944126  0.39331352    -0.02700
C467        C  0.37676102  0.77043109  0.39488668     0.36600
C468        C  0.30731429  0.67874223  0.41980978     0.40200
C469        C  0.33504239  0.77549143  0.43593070     0.39400
C470        C  0.34904019  0.67387980  0.37830197     0.36300
C471        C  0.41567052  0.69444823  0.39350945     0.37000
C472        C  0.39094614  0.74758591  0.29149290     0.40200
N473        N  0.33160094  0.79636317  0.44682562    -0.37900
N474        N  0.39029537  0.78919545  0.38936892    -0.39400
N475        N  0.29306740  0.66030860  0.42460533    -0.37200
N476        N  0.35175832  0.65350964  0.36632869    -0.39600
N477        N  0.32907151  0.75533040  0.33083672    -0.39400
N478        N  0.38582615  0.75812423  0.27079483    -0.37000
N479        N  0.47826180  0.68796856  0.35454776    -0.38000
N480        N  0.42064561  0.68375859  0.41415976    -0.39700
C481        C  0.08596138  0.77126857  0.63090364    -0.04600
C482        C  0.10937020  0.78750297  0.63652317     0.09500
C483        C  0.11150771  0.80107687  0.66210970    -0.02000
C484        C  0.09096446  0.79752443  0.68240133    -0.00300
C485        C  0.06815596  0.78026121  0.67725805    -0.03900
C486        C  0.06549071  0.76759354  0.65115667     0.03100
C487        C  0.13275967  0.78794489  0.61635339     0.10000
C488        C  0.13556761  0.81770785  0.66798164     0.35900
C489        C  0.04192528  0.75016972  0.64525377     0.39300
C490        C  0.13080080  0.80318574  0.59170997    -0.04300
C491        C  0.15090951  0.80009455  0.57087298     0.02900
C492        C  0.17319989  0.78171220  0.57457894    -0.03900
C493        C  0.17607214  0.76798029  0.60018330    -0.00100
C494        C  0.15591386  0.77102194  0.62084807    -0.02700
C495        C  0.10754813  0.82145159  0.58757476     0.36600
C496        C  0.19981017  0.75053542  0.60538784     0.40200
C497        C  0.14769702  0.81471755  0.54507977     0.39400
C498        C  0.15855924  0.75603405  0.64657483     0.36300
C499        C  0.08358028  0.75734782  0.60457717     0.37000
C500        C  0.09437531  0.80995710  0.70929569     0.40200
N501        N  0.14502641  0.82643488  0.52456865    -0.37900
N502        N  0.08896491  0.83596693  0.58432313    -0.39400
N503        N  0.21863884  0.73657442  0.60955356    -0.37200
N504        N  0.16069168  0.74425369  0.66712526    -0.39600
N505        N  0.15483815  0.83077147  0.67276269    -0.39400
N506        N  0.09707925  0.81972371  0.73081707    -0.37000
N507        N  0.02330897  0.73614974  0.64052453    -0.38000
N508        N  0.08176447  0.74634519  0.58356823    -0.39700
C509        C  0.08928881  0.62840608  0.79838494    -0.04600
C510        C  0.11580330  0.63271462  0.78729821     0.09500
C511        C  0.12241826  0.65835688  0.77545090    -0.02000
C512        C  0.10232070  0.67916597  0.77366302    -0.00300
C513        C  0.07527315  0.67439017  0.78333019    -0.03900
C514        C  0.06887035  0.64897371  0.79593034     0.03100
C515        C  0.13589400  0.60947180  0.78511441     0.10000
C516        C  0.14969519  0.66286520  0.76412222     0.35900
C517        C  0.04076733  0.64303433  0.80405782     0.39300
C518        C  0.13599761  0.59295463  0.76124750    -0.04300
C519        C  0.15640640  0.57268457  0.75758558     0.02900
C520        C  0.17692625  0.56874862  0.77783045    -0.03900
C521        C  0.17626504  0.58463065  0.80213371    -0.00100
C522        C  0.15585133  0.60503936  0.80571468    -0.02700
C523        C  0.11545602  0.59745967  0.74003063     0.36600
C524        C  0.19621211  0.57947701  0.82369915     0.40200
C525        C  0.15695584  0.55663478  0.73237346     0.39400
C526        C  0.15556153  0.62184938  0.83033622     0.36300
C527        C  0.08286241  0.60240510  0.81155987     0.37000
C528        C  0.10929379  0.70537550  0.76108310     0.40200
N529        N  0.15743699  0.54384904  0.71231251    -0.37900
N530        N  0.09911726  0.60113799  0.72315935    -0.39400
N531        N  0.21197458  0.57516431  0.84096244    -0.37200
N532        N  0.15530765  0.63531350  0.84994283    -0.39600
N533        N  0.17143433  0.66637270  0.75501284    -0.39400
N534        N  0.11471000  0.72620202  0.75098617    -0.37000
N535        N  0.01828855  0.63803555  0.81014237    -0.38000
N536        N  0.07784230  0.58176592  0.82223296    -0.39700
C537        C  0.52825216  0.87069455  0.33782868    -0.04600
C538        C  0.53981255  0.86358515  0.36346053     0.09500
C539        C  0.55122392  0.83713408  0.36721162    -0.02000
C540        C  0.54928308  0.81724783  0.34610737    -0.00300
C541        C  0.53629833  0.82390758  0.32101088    -0.03900
C542        C  0.52683340  0.85106513  0.31657018     0.03100
C543        C  0.53637839  0.88260998  0.38745474     0.10000
C544        C  0.56343852  0.82999759  0.39346199     0.35900
C545        C  0.51467804  0.85850023  0.29031768     0.39300
C546        C  0.51303773  0.87988450  0.40445434    -0.04300
C547        C  0.50826406  0.89869991  0.42598182     0.02900
C548        C  0.52643295  0.92119574  0.43031368    -0.03900
C549        C  0.55016540  0.92352094  0.41339553    -0.00100
C550        C  0.55526248  0.90403052  0.39237044    -0.02700
C551        C  0.49353576  0.85782495  0.39930359     0.36600
C552        C  0.56862936  0.94674017  0.41644984     0.40200
C553        C  0.48450019  0.89451515  0.44365912     0.39400
C554        C  0.57981438  0.90607172  0.37547391     0.36300
C555        C  0.51608705  0.89770996  0.33399922     0.37000
C556        C  0.55853776  0.78935784  0.35115342     0.40200
N557        N  0.46539448  0.89097932  0.45741781    -0.37900
N558        N  0.47806168  0.84028202  0.39504494    -0.39400
N559        N  0.58330562  0.96531448  0.41873017    -0.37200
N560        N  0.59944981  0.90750759  0.36207218    -0.39600
N561        N  0.57310334  0.82438603  0.41445810    -0.39400
N562        N  0.56574234  0.76713450  0.35551745    -0.37000
N563        N  0.50501987  0.86435518  0.26937708    -0.38000
N564        N  0.50618939  0.91912805  0.33103782    -0.39700
C565        C  0.40177999  0.88090080  0.53212070    -0.04600
C566        C  0.37521664  0.89003311  0.53962384     0.09500
C567        C  0.37128634  0.91780561  0.54720364    -0.02000
C568        C  0.39327681  0.93677005  0.54512691    -0.00300
C569        C  0.41941036  0.92792043  0.53585380    -0.03900
C570        C  0.42386221  0.89966831  0.53075118     0.03100
C571        C  0.35125272  0.87067265  0.53748542     0.10000
C572        C  0.34439988  0.92689223  0.55650209     0.35900
C573        C  0.45139806  0.88986257  0.52454555     0.39300
C574        C  0.34597982  0.85115618  0.55835960    -0.04300
C575        C  0.32567951  0.83067800  0.55453505     0.02900
C576        C  0.31047734  0.82963895  0.52980498    -0.03900
C577        C  0.31483183  0.85009255  0.50951363    -0.00100
C578        C  0.33514033  0.87044650  0.51334731    -0.02700
C579        C  0.36177469  0.85205221  0.58361850     0.36600
C580        C  0.29935087  0.84942013  0.48396299     0.40200
C581        C  0.32008219  0.81095016  0.57621227     0.39400
C582        C  0.34014913  0.89071635  0.49198382     0.36300
C583        C  0.40611912  0.85228313  0.52483061     0.37000
C584        C  0.38873445  0.96556351  0.55141411     0.40200
N585        N  0.31549488  0.79531593  0.59355147    -0.37900
N586        N  0.37441483  0.85287702  0.60373873    -0.39400
N587        N  0.28701216  0.84881555  0.46363965    -0.37200
N588        N  0.34412512  0.90688121  0.47498619    -0.39600
N589        N  0.32296447  0.93405431  0.56402363    -0.39400
N590        N  0.38513586  0.98852945  0.55646859    -0.37000
N591        N  0.47342354  0.88199031  0.52005439    -0.38000
N592        N  0.40944614  0.82947046  0.51896599    -0.39700
C593        C  0.58801716  0.45284307  0.11265620    -0.04600
C594        C  0.60917281  0.47249770  0.11575031     0.09500
C595        C  0.61127358  0.49442159  0.09685890    -0.02000
C596        C  0.59239649  0.49671860  0.07502503    -0.00300
C597        C  0.57150410  0.47675170  0.07154054    -0.03900
C598        C  0.56934791  0.45483972  0.09049746     0.03100
C599        C  0.62880954  0.47092073  0.13942665     0.10000
C600        C  0.63243471  0.51518877  0.10048282     0.35900
C601        C  0.54797244  0.43429295  0.08708230     0.39300
C602        C  0.65348312  0.45584964  0.13698277    -0.04300
C603        C  0.67320854  0.45646942  0.15828252     0.02900
C604        C  0.66881065  0.47280568  0.18205802    -0.03900
C605        C  0.64345138  0.48723564  0.18474403    -0.00100
C606        C  0.62360364  0.48611705  0.16355331    -0.02700
C607        C  0.65892262  0.44043742  0.11200276     0.36600
C608        C  0.63814314  0.50458582  0.20846183     0.40200
C609        C  0.69803362  0.44003028  0.15567080     0.39400
C610        C  0.59805267  0.50152248  0.16595833     0.36300
C611        C  0.58504784  0.43102421  0.13276546     0.37000
C612        C  0.59330575  0.52078237  0.05732693     0.40200
N613        N  0.71779585  0.42692829  0.15362094    -0.37900
N614        N  0.66328442  0.42828873  0.09200774    -0.39400
N615        N  0.63364944  0.51850970  0.22725029    -0.37200
N616        N  0.57770524  0.51375271  0.16759892    -0.39600
N617        N  0.64917288  0.53180535  0.10342650    -0.39400
N618        N  0.59379759  0.54014774  0.04352975    -0.37000
N619        N  0.53089054  0.41800179  0.08423072    -0.38000
N620        N  0.58251102  0.41373502  0.14890283    -0.39700
C621        C  0.61318818  0.65889700  0.29893870    -0.04600
C622        C  0.61175060  0.63416147  0.28394734     0.09500
C623        C  0.58883435  0.62902265  0.26695954    -0.02000
C624        C  0.56808187  0.64909548  0.26385344    -0.00300
C625        C  0.56995613  0.67454807  0.27800023    -0.03900
C626        C  0.59259786  0.67915268  0.29577967     0.03100
C627        C  0.63563020  0.61469890  0.28365129     0.10000
C628        C  0.58715332  0.60323320  0.25199926     0.35900
C629        C  0.59513348  0.70493110  0.31053522     0.39300
C630        C  0.63700846  0.59260275  0.30238127    -0.04300
C631        C  0.65838351  0.57299599  0.30026889     0.02900
C632        C  0.67858623  0.57542413  0.27936629    -0.03900
C633        C  0.67749635  0.59808960  0.26108295    -0.00100
C634        C  0.65617740  0.61763379  0.26332135    -0.02700
C635        C  0.61602400  0.58981396  0.32347293     0.36600
C636        C  0.69722170  0.60043070  0.23868707     0.40200
C637        C  0.65956208  0.55030950  0.31962329     0.39400
C638        C  0.65475227  0.64041102  0.24403981     0.36300
C639        C  0.63620117  0.66358308  0.31734897     0.37000
C640        C  0.54593307  0.64417928  0.24441830     0.40200
N641        N  0.66047424  0.53219778  0.33502823    -0.37900
N642        N  0.59929050  0.58761420  0.34026331    -0.39400
N643        N  0.71282202  0.60225087  0.22078769    -0.37200
N644        N  0.65353097  0.65852701  0.22867621    -0.39600
N645        N  0.58591443  0.58264061  0.24017377    -0.39400
N646        N  0.52843919  0.64024371  0.22880779    -0.37000
N647        N  0.59751785  0.72554589  0.32211765    -0.38000
N648        N  0.65444956  0.66720930  0.33214303    -0.39700
C649        C  0.19636938  0.34663629  0.89091841    -0.04600
C650        C  0.21171863  0.37123686  0.89135888     0.09500
C651        C  0.22841158  0.37733949  0.91424188    -0.02000
C652        C  0.23138640  0.35805924  0.93563319    -0.00300
C653        C  0.21761540  0.33244551  0.93433515    -0.03900
C654        C  0.19909638  0.32734319  0.91247569     0.03100
C655        C  0.21352992  0.38903830  0.86635449     0.10000
C656        C  0.24362685  0.40302637  0.91501687     0.35900
C657        C  0.18417500  0.30153925  0.91118775     0.39300
C658        C  0.19559381  0.41153172  0.86263972    -0.04300
C659        C  0.19975572  0.43005915  0.84056263     0.02900
C660        C  0.22236092  0.42643369  0.82238643    -0.03900
C661        C  0.23973992  0.40321485  0.82591040    -0.00100
C662        C  0.23515820  0.38459937  0.84757090    -0.02700
C663        C  0.17354541  0.41607870  0.88229080     0.36600
C664        C  0.26300065  0.39854756  0.80772956     0.40200
C665        C  0.18165598  0.45362933  0.83768434     0.39400
C666        C  0.25345535  0.36120541  0.85121607     0.36300
C667        C  0.17889657  0.34062736  0.86751213     0.37000
C668        C  0.24905395  0.36449775  0.95881613     0.40200
N669        N  0.16710971  0.47234134  0.83554263    -0.37900
N670        N  0.15609467  0.41961589  0.89810947    -0.39400
N671        N  0.28196106  0.39486718  0.79381843    -0.37200
N672        N  0.26806562  0.34265534  0.85411278    -0.39600
N673        N  0.25575600  0.42346834  0.91551274    -0.39400
N674        N  0.26321295  0.36972774  0.97717644    -0.37000
N675        N  0.17222846  0.28099969  0.91021509    -0.38000
N676        N  0.16502448  0.33583863  0.84881788    -0.39700
C677        C  0.38879092  0.39825506  0.00714342    -0.04600
C678        C  0.38662696  0.38651827  0.03354570     0.09500
C679        C  0.40472374  0.39507101  0.05446083    -0.02000
C680        C  0.42538269  0.41481998  0.04890702    -0.00300
C681        C  0.42735367  0.42736149  0.02250125    -0.03900
C682        C  0.40840122  0.41895169  0.00173326     0.03100
C683        C  0.36517126  0.36498418  0.03887659     0.10000
C684        C  0.40185179  0.38356008  0.08185291     0.35900
C685        C  0.40818610  0.43178525  0.97473439     0.39300
C686        C  0.37237898  0.33682717  0.03861192    -0.04300
C687        C  0.35162658  0.31653055  0.03837067     0.02900
C688        C  0.32363805  0.32430078  0.03832675    -0.03900
C689        C  0.31647884  0.35227507  0.04098700    -0.00100
C690        C  0.33718013  0.37258917  0.04120231    -0.02700
C691        C  0.40111682  0.32883341  0.03704449     0.36600
C692        C  0.28768115  0.36012989  0.04228500     0.40200
C693        C  0.35896939  0.28762850  0.03694718     0.39400
C694        C  0.32968029  0.40145238  0.04233392     0.36300
C695        C  0.37065640  0.38880595  0.98532480     0.37000
C696        C  0.44497554  0.42137966  0.07042685     0.40200
N697        N  0.36476354  0.26458374  0.03588903    -0.37900
N698        N  0.42403887  0.32250029  0.03584947    -0.39400
N699        N  0.26470310  0.36627361  0.04341172    -0.37200
N700        N  0.32372563  0.42446400  0.04307288    -0.39600
N701        N  0.39942342  0.37442970  0.10369680    -0.39400
N702        N  0.46058246  0.42644580  0.08763267    -0.37000
N703        N  0.40782282  0.44184307  0.95315778    -0.38000
N704        N  0.35623780  0.38120838  0.96802922    -0.39700
C705        C  0.63494781  0.65948733  0.99232946    -0.04600
C706        C  0.63568514  0.64223846  0.96901061     0.09500
C707        C  0.65666695  0.64567294  0.94921855    -0.02000
C708        C  0.67762447  0.66530890  0.95336447    -0.00300
C709        C  0.67712173  0.68243486  0.97683132    -0.03900
C710        C  0.65543028  0.67965220  0.99612880     0.03100
C711        C  0.61558144  0.61907473  0.96645278     0.10000
C712        C  0.65652855  0.62891277  0.92452089     0.35900
C713        C  0.65483304  0.69668548  0.02066211     0.39300
C714        C  0.58862905  0.62383463  0.95696907    -0.04300
C715        C  0.56909065  0.60233617  0.95695543     0.02900
C716        C  0.57634390  0.57568884  0.96666047    -0.03900
C717        C  0.60436743  0.57057071  0.97360989    -0.00100
C718        C  0.62355391  0.59231178  0.97413481    -0.02700
C719        C  0.58096497  0.65111998  0.94756303     0.36600
C720        C  0.61391737  0.54316558  0.98070078     0.40200
C721        C  0.54169145  0.60777567  0.94637442     0.39400
C722        C  0.65150142  0.58740541  0.98357667     0.36300
C723        C  0.61339350  0.65598137  0.01276674     0.37000
C724        C  0.69955082  0.66799759  0.93331604     0.40200
N725        N  0.51989166  0.61217810  0.93789025    -0.37900
N726        N  0.57489806  0.67285825  0.94007325    -0.39400
N727        N  0.62183690  0.52139654  0.98613813    -0.37200
N728        N  0.67373169  0.58361070  0.99116621    -0.39600
N729        N  0.65620940  0.61563922  0.90480425    -0.39400
N730        N  0.71694888  0.66992634  0.91718789    -0.37000
N731        N  0.65426492  0.71022420  0.04019883    -0.38000
N732        N  0.59621489  0.65320369  0.02902643    -0.39700
C733        C  0.64153982  0.80893807  0.09758824    -0.04600
C734        C  0.63540992  0.78750338  0.11615659     0.09500
C735        C  0.65099274  0.76303096  0.11555028    -0.02000
C736        C  0.67257361  0.75995432  0.09645743    -0.00300
C737        C  0.67921791  0.78158306  0.07817649    -0.03900
C738        C  0.66363629  0.80615747  0.07884086     0.03100
C739        C  0.61210309  0.79002646  0.13609154     0.10000
C740        C  0.64421370  0.74066137  0.13416337     0.35900
C741        C  0.67063383  0.82871909  0.06063745     0.39300
C742        C  0.58542229  0.78200476  0.12824792    -0.04300
C743        C  0.56428720  0.78003464  0.14806107     0.02900
C744        C  0.56989989  0.78561436  0.17625279    -0.03900
C745        C  0.59626826  0.79593829  0.18346806    -0.00100
C746        C  0.61719473  0.79807703  0.16343109    -0.02700
C747        C  0.58002467  0.77478698  0.09977006     0.36600
C748        C  0.60211042  0.80447686  0.21147948     0.40200
C749        C  0.53720520  0.77110716  0.13916698     0.39400
C750        C  0.64432513  0.80799467  0.17097976     0.36300
C751        C  0.62460207  0.83353655  0.09749911     0.37000
C752        C  0.68687731  0.73376817  0.09451110     0.40200
N753        N  0.51564393  0.76409855  0.13192539    -0.37900
N754        N  0.57569528  0.76906905  0.07710269    -0.39400
N755        N  0.60688119  0.81124589  0.23377796    -0.37200
N756        N  0.66593198  0.81596880  0.17691781    -0.39600
N757        N  0.63876136  0.72285630  0.14897126    -0.39400
N758        N  0.69793681  0.71279837  0.09267908    -0.37000
N759        N  0.67622067  0.84688703  0.04632092    -0.38000
N760        N  0.61079032  0.85290429  0.09743161    -0.39700
C761        C  0.77684765  0.65934122  0.12552838    -0.04600
C762        C  0.78750699  0.63375912  0.11715664     0.09500
C763        C  0.79738111  0.63044538  0.09011858    -0.02000
C764        C  0.79495424  0.65211204  0.07089529    -0.00300
C765        C  0.78250977  0.67746381  0.07862008    -0.03900
C766        C  0.77439508  0.68112954  0.10654439     0.03100
C767        C  0.78551255  0.60968736  0.13619720     0.10000
C768        C  0.80962021  0.60443018  0.08203635     0.35900
C769        C  0.76237153  0.70680779  0.11596562     0.39300
C770        C  0.76087087  0.59438319  0.13705373    -0.04300
C771        C  0.75729533  0.57362162  0.15688812     0.02900
C772        C  0.77849994  0.56779492  0.17591491    -0.03900
C773        C  0.80348904  0.58252774  0.17457606    -0.00100
C774        C  0.80692783  0.60357993  0.15483780    -0.02700
C775        C  0.73868256  0.60083988  0.11810884     0.36600
C776        C  0.82568249  0.57581280  0.19335802     0.40200
C777        C  0.73110996  0.55928600  0.15873002     0.39400
C778        C  0.83209836  0.61956565  0.15415554     0.36300
C779        C  0.76749193  0.66281971  0.15372807     0.37000
C780        C  0.80548605  0.64808961  0.04321538     0.40200
N781        N  0.71025172  0.54793509  0.16036265    -0.37900
N782        N  0.72101091  0.60606753  0.10310411    -0.39400
N783        N  0.84338782  0.57032339  0.20824670    -0.37200
N784        N  0.85210656  0.63242396  0.15366233    -0.39600
N785        N  0.81948265  0.58372918  0.07566080    -0.39400
N786        N  0.81384367  0.64475294  0.02117235    -0.37000
N787        N  0.75291741  0.72720329  0.12378195    -0.38000
N788        N  0.76007872  0.66541585  0.17619557    -0.39700
C789        C  0.84309256  0.69900993  0.89224643    -0.04600
C790        C  0.86792273  0.71396231  0.89302344     0.09500
C791        C  0.87420808  0.73009982  0.91626975    -0.02000
C792        C  0.85522548  0.73219533  0.93812407    -0.00300
C793        C  0.82941836  0.71871608  0.93662103    -0.03900
C794        C  0.82399371  0.70113028  0.91408511     0.03100
C795        C  0.88697220  0.71393885  0.86883011     0.10000
C796        C  0.89978334  0.74551258  0.91709371     0.35900
C797        C  0.79837462  0.68600695  0.91270034     0.39300
C798        C  0.88260390  0.73259348  0.84707459    -0.04300
C799        C  0.90183689  0.73458102  0.82543728     0.02900
C800        C  0.92584342  0.71793255  0.82551049    -0.03900
C801        C  0.92955558  0.69846903  0.84683399    -0.00100
C802        C  0.91008378  0.69638662  0.86830431    -0.02700
C803        C  0.85857077  0.75039402  0.84743417     0.36600
C804        C  0.95338277  0.68043580  0.84671921     0.40200
C805        C  0.89754866  0.75495046  0.80399340     0.39400
C806        C  0.91384786  0.67636804  0.89009902     0.36300
C807        C  0.83675906  0.68238632  0.86828654     0.37000
C808        C  0.86240554  0.74811935  0.96236373     0.40200
N809        N  0.89412034  0.77116190  0.78689566    -0.37900
N810        N  0.83945129  0.76454897  0.84771095    -0.39400
N811        N  0.97235503  0.66609154  0.84676195    -0.37200
N812        N  0.91675018  0.66035394  0.90745436    -0.39600
N813        N  0.92009203  0.75789962  0.91762341    -0.39400
N814        N  0.86817349  0.76066149  0.98171789    -0.37000
N815        N  0.77812076  0.67361006  0.91149070    -0.38000
N816        N  0.83174674  0.66934240  0.84906422    -0.39700
C817        C  0.56185346  0.35925716  0.84553042    -0.04600
C818        C  0.54354020  0.36214427  0.86786372     0.09500
C819        C  0.52291650  0.34221453  0.87220875    -0.02000
C820        C  0.51953487  0.32046132  0.85340719    -0.00300
C821        C  0.53640363  0.31871366  0.82963190    -0.03900
C822        C  0.55835232  0.33763703  0.82643896     0.03100
C823        C  0.54429176  0.38715499  0.88576438     0.10000
C824        C  0.50450418  0.34469055  0.89564826     0.35900
C825        C  0.57666971  0.33577400  0.80297916     0.39300
C826        C  0.53123979  0.41151554  0.87685045    -0.04300
C827        C  0.52736703  0.43353670  0.89529024     0.02900
C828        C  0.53668884  0.43143084  0.92275787    -0.03900
C829        C  0.55155772  0.40782481  0.93104395    -0.00100
C830        C  0.55528541  0.38573975  0.91257071    -0.02700
C831        C  0.52085667  0.41343609  0.84892544     0.36600
C832        C  0.56135194  0.40543070  0.95912068     0.40200
C833        C  0.51337786  0.45829599  0.88606770     0.39400
C834        C  0.56946403  0.36100490  0.92142460     0.36300
C835        C  0.58384409  0.37911942  0.84185758     0.37000
C836        C  0.49857460  0.29979338  0.85870033     0.40200
N837        N  0.50221041  0.47797335  0.87874671    -0.37900
N838        N  0.51270269  0.41493248  0.82663309    -0.39400
N839        N  0.56908236  0.40357809  0.98154515    -0.37200
N840        N  0.58069746  0.34126713  0.92847120    -0.39600
N841        N  0.48987953  0.34669431  0.91434418    -0.39400
N842        N  0.48189845  0.28336854  0.86292466    -0.37000
N843        N  0.59155564  0.33438593  0.78444912    -0.38000
N844        N  0.60133265  0.39496850  0.83898852    -0.39700
C845        C  0.46170085  0.16484055  0.63070533    -0.04600
C846        C  0.47504913  0.13928144  0.63365760     0.09500
C847        C  0.49023887  0.13370718  0.65766664    -0.02000
C848        C  0.49203299  0.15350351  0.67877268    -0.00300
C849        C  0.47834896  0.17923970  0.67618708    -0.03900
C850        C  0.46353832  0.18486600  0.65167238     0.03100
C851        C  0.47403138  0.11838092  0.61108669     0.10000
C852        C  0.50457896  0.10760731  0.66028925     0.35900
C853        C  0.45031544  0.21129867  0.64764790     0.39300
C854        C  0.49379260  0.11903733  0.58982198    -0.04300
C855        C  0.49416362  0.09826780  0.56958392     0.02900
C856        C  0.47463113  0.07660470  0.57038003    -0.03900
C857        C  0.45465395  0.07622502  0.59161593    -0.00100
C858        C  0.45442156  0.09703449  0.61186783    -0.02700
C859        C  0.51444301  0.14060293  0.58948660     0.36600
C860        C  0.43424625  0.05449891  0.59263877     0.40200
C861        C  0.51588522  0.09837551  0.54895731     0.39400
C862        C  0.43440970  0.09622566  0.63406496     0.36300
C863        C  0.44614123  0.17049161  0.60586589     0.37000
C864        C  0.50954087  0.14777958  0.70230787     0.40200
N865        N  0.53323245  0.09843578  0.53265371    -0.37900
N866        N  0.53095119  0.15773912  0.58933234    -0.39400
N867        N  0.41795143  0.03718933  0.59357051    -0.37200
N868        N  0.41863534  0.09565894  0.65187853    -0.39600
N869        N  0.51598032  0.08682122  0.66225180    -0.39400
N870        N  0.52361217  0.14314825  0.72091815    -0.37000
N871        N  0.43999069  0.23241918  0.64402727    -0.38000
N872        N  0.43372896  0.17491140  0.58607935    -0.39700
C873        C  0.37912044  0.23755878  0.83912650    -0.04600
C874        C  0.38215383  0.21809852  0.86038627     0.09500
C875        C  0.40445917  0.19954293  0.85980620    -0.02000
C876        C  0.42475906  0.20165709  0.83905353    -0.00300
C877        C  0.42272930  0.22236612  0.81865162    -0.03900
C878        C  0.39908495  0.23949303  0.81818962     0.03100
C879        C  0.36294797  0.21901125  0.88443195     0.10000
C880        C  0.40693258  0.17886871  0.88120794     0.35900
C881        C  0.39519321  0.25935417  0.79617754     0.39300
C882        C  0.33666340  0.20683076  0.88279893    -0.04300
C883        C  0.31732050  0.21083016  0.90411894     0.02900
C884        C  0.32406948  0.22732509  0.92708500    -0.03900
C885        C  0.35059348  0.23922669  0.92880140    -0.00100
C886        C  0.36999752  0.23485340  0.90767498    -0.02700
C887        C  0.32913533  0.19131848  0.85846325     0.36600
C888        C  0.35783850  0.25649432  0.95203728     0.40200
C889        C  0.28975894  0.19973007  0.90134308     0.39400
C890        C  0.39697972  0.24761481  0.90923377     0.36300
C891        C  0.35587238  0.25635597  0.83952732     0.37000
C892        C  0.44842777  0.18353213  0.83975503     0.40200
N893        N  0.26772325  0.19110586  0.89895631    -0.37900
N894        N  0.32308035  0.17916352  0.83895403    -0.39400
N895        N  0.36365527  0.27051935  0.97033543    -0.37200
N896        N  0.41846163  0.25775957  0.91037815    -0.39600
N897        N  0.40887985  0.16240598  0.89824533    -0.39400
N898        N  0.46724913  0.16896803  0.84042357    -0.37000
N899        N  0.39197118  0.27519335  0.77874528    -0.38000
N900        N  0.33731804  0.27127818  0.84006991    -0.39700
C901        C  0.39959570  0.35028643  0.69407307    -0.04600
C902        C  0.39857440  0.37313562  0.71193386     0.09500
C903        C  0.41917428  0.37628787  0.73214576    -0.02000
C904        C  0.43964335  0.35596844  0.73542114    -0.00300
C905        C  0.43881095  0.33147844  0.71960910    -0.03900
C906        C  0.41904364  0.32912117  0.69837252     0.03100
C907        C  0.37425256  0.39218511  0.71157113     0.10000
C908        C  0.41859458  0.39990583  0.75039806     0.35900
C909        C  0.41718524  0.30412150  0.68229365     0.39300
C910        C  0.34850488  0.38283965  0.72142652    -0.04300
C911        C  0.32596581  0.40102838  0.72301251     0.02900
C912        C  0.32948537  0.42918668  0.71699999    -0.03900
C913        C  0.35497115  0.43843895  0.70646287    -0.00100
C914        C  0.37697941  0.41976377  0.70285356    -0.02700
C915        C  0.34547713  0.35467097  0.73087238     0.36600
C916        C  0.35900068  0.46742319  0.70071963     0.40200
C917        C  0.29884950  0.39058652  0.72988033     0.39400
C918        C  0.40256241  0.42891511  0.69043873     0.36300
C919        C  0.37992230  0.34824073  0.67171727     0.37000
C920        C  0.46161489  0.36037321  0.75521556     0.40200
N921        N  0.27716038  0.38202674  0.73463666    -0.37900
N922        N  0.34323647  0.33224376  0.73847438    -0.39400
N923        N  0.36232162  0.49057119  0.69642945    -0.37200
N924        N  0.42286832  0.43614595  0.68034924    -0.39600
N925        N  0.41810007  0.41873120  0.76494598    -0.39400
N926        N  0.47914005  0.36395064  0.77086224    -0.37000
N927        N  0.41534937  0.28411721  0.66956470    -0.38000
N928        N  0.36430754  0.34675074  0.65388000    -0.39700
C929        C  0.11463006  0.44923061  0.59294841    -0.04600
C930        C  0.11460329  0.46596101  0.61662579     0.09500
C931        C  0.09244470  0.48409981  0.62136797    -0.02000
C932        C  0.07129202  0.48678603  0.60171381    -0.00300
C933        C  0.07207994  0.47124588  0.57702338    -0.03900
C934        C  0.09331990  0.45162531  0.57334842     0.03100
C935        C  0.13897196  0.46633081  0.63544654     0.10000
C936        C  0.09190718  0.50059941  0.64626427     0.35900
C937        C  0.09410905  0.43468241  0.54885177     0.39300
C938        C  0.15961386  0.48635592  0.63165171    -0.04300
C939        C  0.18181068  0.48819224  0.65020744     0.02900
C940        C  0.18313661  0.47042054  0.67330350    -0.03900
C941        C  0.16281910  0.44982412  0.67656584    -0.00100
C942        C  0.14102864  0.44758222  0.65749041    -0.02700
C943        C  0.15747178  0.50564425  0.60892079     0.36600
C944        C  0.16445297  0.43074416  0.69947300     0.40200
C945        C  0.20254639  0.50930811  0.64606611     0.39400
C946        C  0.12050058  0.42616929  0.66061544     0.36300
C947        C  0.13728572  0.43031905  0.58831506     0.37000
C948        C  0.04860645  0.50554657  0.60706214     0.40200
N949        N  0.21907867  0.52606544  0.64257098    -0.37900
N950        N  0.15554953  0.52102485  0.59088533    -0.39400
N951        N  0.16577520  0.41559059  0.71775105    -0.37200
N952        N  0.10423174  0.40897944  0.66298895    -0.39600
N953        N  0.09155565  0.51371732  0.66609548    -0.39400
N954        N  0.03056655  0.52050141  0.61132926    -0.37000
N955        N  0.09486738  0.42091982  0.52950247    -0.38000
N956        N  0.15541148  0.41531811  0.58467350    -0.39700
C957        C  0.90349174  0.54940834  0.39168259    -0.04600
C958        C  0.88185040  0.53013456  0.39029719     0.09500
C959        C  0.87986435  0.50937209  0.41049693    -0.02000
C960        C  0.90006087  0.50715417  0.43123540    -0.00300
C961        C  0.92243943  0.52582538  0.43200244    -0.03900
C962        C  0.92358455  0.54739004  0.41254907     0.03100
C963        C  0.86226477  0.53048749  0.36648822     0.10000
C964        C  0.85737296  0.48975354  0.40942210     0.35900
C965        C  0.94499463  0.56803028  0.41447033     0.39300
C966        C  0.86926747  0.51656118  0.34200076    -0.04300
C967        C  0.85040252  0.51530938  0.32004047     0.02900
C968        C  0.82411798  0.52762812  0.32247802    -0.03900
C969        C  0.81766886  0.54284393  0.34643945    -0.00100
C970        C  0.83669372  0.54419441  0.36840103    -0.02700
C971        C  0.89577718  0.50293736  0.33970844     0.36600
C972        C  0.79102820  0.55610125  0.34902860     0.40200
C973        C  0.85812883  0.50147527  0.29469806     0.39400
C974        C  0.82979177  0.55913032  0.39330305     0.36300
C975        C  0.90525639  0.57105181  0.37121890     0.37000
C976        C  0.89842371  0.48481833  0.45103250     0.40200
N977        N  0.86425202  0.49059770  0.27443315    -0.37900
N978        N  0.91688942  0.49207755  0.33796234    -0.39400
N979        N  0.76982689  0.56675038  0.35108800    -0.37200
N980        N  0.82433606  0.57101387  0.41317958    -0.39600
N981        N  0.83947541  0.47412200  0.40863146    -0.39400
N982        N  0.89713826  0.46707147  0.46683882    -0.37000
N983        N  0.96178594  0.58476318  0.41608179    -0.38000
N984        N  0.90660930  0.58822942  0.35482303    -0.39700
C985        C  0.08966918  0.61115945  0.44153794    -0.04600
C986        C  0.11451088  0.61070313  0.45650632     0.09500
C987        C  0.12045542  0.58822574  0.47381427    -0.02000
C988        C  0.10076788  0.56740343  0.47789094    -0.00300
C989        C  0.07491548  0.56877933  0.46448521    -0.03900
C990        C  0.06997736  0.59012322  0.44531872     0.03100
C991        C  0.13275911  0.63541308  0.45740025     0.10000
C992        C  0.14642107  0.58733360  0.48857408     0.35900
C993        C  0.04399499  0.59153971  0.43077957     0.39300
C994        C  0.12702625  0.65632459  0.47664138    -0.04300
C995        C  0.14610437  0.67762725  0.48108750     0.02900
C996        C  0.17141499  0.67809051  0.46647340    -0.03900
C997        C  0.17655769  0.65764809  0.44631089    -0.00100
C998        C  0.15713036  0.63654135  0.44166901    -0.02700
C999        C  0.10176389  0.65524885  0.49266109     0.36600
C1000       C  0.20259262  0.65709384  0.43165062     0.40200
C1001       C  0.13961123  0.69890362  0.50106907     0.39400
C1002       C  0.16248708  0.61539282  0.42129705     0.36300
C1003       C  0.08389245  0.63406032  0.42330089     0.37000
C1004       C  0.10697817  0.54483435  0.49648148     0.40200
N1005       N  0.13443523  0.71569096  0.51711828    -0.37900
N1006       N  0.08164175  0.65424957  0.50537083    -0.39400
N1007       N  0.22338529  0.65651497  0.42004173    -0.37200
N1008       N  0.16665879  0.59856136  0.40501974    -0.39600
N1009       N  0.16710684  0.58671117  0.50028438    -0.39400
N1010       N  0.11184943  0.52698042  0.51143514    -0.37000
N1011       N  0.02337152  0.59279028  0.41902671    -0.38000
N1012       N  0.07925405  0.65235854  0.40883108    -0.39700
C1013       C  0.95238832  0.58545478  0.61926663    -0.04600
C1014       C  0.96260756  0.61247633  0.61640708     0.09500
C1015       C  0.97432375  0.62073534  0.59110526    -0.02000
C1016       C  0.97729995  0.60165324  0.56944414    -0.00300
C1017       C  0.96891281  0.57403764  0.57301194    -0.03900
C1018       C  0.95575765  0.56621648  0.59777166     0.03100
C1019       C  0.96334023  0.63154330  0.64065368     0.10000
C1020       C  0.98401289  0.64876798  0.58766997     0.35900
C1021       C  0.94721396  0.53793380  0.60182928     0.39300
C1022       C  0.98314637  0.62744057  0.66146148    -0.04300
C1023       C  0.98623314  0.64690740  0.68269118     0.02900
C1024       C  0.96964827  0.67095392  0.68328767    -0.03900
C1025       C  0.94849418  0.67400581  0.66348613    -0.00100
C1026       C  0.94550873  0.65443000  0.64219237    -0.02700
C1027       C  0.00094224  0.60342857  0.66060016     0.36600
C1028       C  0.93047873  0.69779037  0.66419688     0.40200
C1029       C  0.00661819  0.64197743  0.70402316     0.39400
C1030       C  0.92455164  0.65815732  0.62127832     0.36300
C1031       C  0.93905178  0.57731735  0.64473108     0.37000
C1032       C  0.98895786  0.61048485  0.54337620     0.40200
N1033       N  0.02289959  0.63809209  0.72091247    -0.37900
N1034       N  0.01501406  0.58423209  0.66002323    -0.39400
N1035       N  0.91595418  0.71664337  0.66477966    -0.37200
N1036       N  0.90800599  0.66111936  0.60447428    -0.39600
N1037       N  0.99154147  0.67116430  0.58499234    -0.39400
N1038       N  0.99810297  0.61762440  0.52259152    -0.37000
N1039       N  0.94050169  0.51535728  0.60509623    -0.38000
N1040       N  0.92844187  0.57090505  0.66504492    -0.39700
C1041       C  0.34064480  0.05115282  0.36226079    -0.04600
C1042       C  0.36415737  0.03408972  0.36263739     0.09500
C1043       C  0.36861230  0.01532429  0.34097822    -0.02000
C1044       C  0.34958332  0.01340493  0.31923954    -0.00300
C1045       C  0.32499390  0.02916897  0.31968145    -0.03900
C1046       C  0.32084939  0.04838532  0.34116406     0.03100
C1047       C  0.38341515  0.03437715  0.38667949     0.10000
C1048       C  0.39227068  0.99704925  0.34170818     0.35900
C1049       C  0.29544613  0.06402645  0.34266646     0.39300
C1050       C  0.37687567  0.01918534  0.41050745    -0.04300
C1051       C  0.39636346  0.01630471  0.43178110     0.02900
C1052       C  0.42259807  0.02891096  0.42958325    -0.03900
C1053       C  0.42822675  0.04588505  0.40660225    -0.00100
C1054       C  0.40888182  0.04820833  0.38503071    -0.02700
C1055       C  0.35023115  0.00582087  0.41270827     0.36600
C1056       C  0.45432093  0.06011934  0.40445100     0.40200
C1057       C  0.38931782  0.00027158  0.45600648     0.39400
C1058       C  0.41545527  0.06406572  0.36060407     0.36300
C1059       C  0.33650970  0.07097811  0.38416693     0.37000
C1060       C  0.35545811  0.99505703  0.29636700     0.40200
N1061       N  0.38369477  0.98744294  0.47525509    -0.37900
N1062       N  0.32895115  0.99533008  0.41440259    -0.39400
N1063       N  0.47494994  0.07178343  0.40258737    -0.37200
N1064       N  0.42067343  0.07654554  0.34102242    -0.39600
N1065       N  0.41093679  0.98229331  0.34236042    -0.39400
N1066       N  0.36019262  0.98043520  0.27820627    -0.37000
N1067       N  0.27511776  0.07634992  0.34399049    -0.38000
N1068       N  0.33331929  0.08677976  0.40165414    -0.39700
C1069       C  0.30296441  0.15655132  0.10761053    -0.04600
C1070       C  0.28208901  0.13662519  0.11085267     0.09500
C1071       C  0.25945839  0.13635982  0.09270275    -0.02000
C1072       C  0.25772672  0.15585490  0.07138492    -0.00300
C1073       C  0.27789419  0.17667498  0.06897666    -0.03900
C1074       C  0.30062239  0.17686822  0.08703450     0.03100
C1075       C  0.28336295  0.11626177  0.13383370     0.10000
C1076       C  0.23738362  0.11663037  0.09671467     0.35900
C1077       C  0.32170485  0.19779905  0.08419201     0.39300
C1078       C  0.27552414  0.12411245  0.16059031    -0.04300
C1079       C  0.27444365  0.10448130  0.18192437     0.02900
C1080       C  0.28053995  0.07634336  0.17644383    -0.03900
C1081       C  0.29023661  0.06909692  0.14977496    -0.00100
C1082       C  0.29118683  0.08887844  0.12857399    -0.02700
C1083       C  0.26726337  0.15237021  0.16584268     0.36600
C1084       C  0.29978597  0.04138416  0.14390175     0.40200
C1085       C  0.26634764  0.11358952  0.20919389     0.39400
C1086       C  0.29936484  0.08095335  0.10094904     0.36300
C1087       C  0.32671067  0.15619732  0.12567550     0.37000
C1088       C  0.23453385  0.15509837  0.05252763     0.40200
N1089       N  0.26006797  0.12105015  0.23093283    -0.37900
N1090       N  0.26058340  0.17480927  0.16996817    -0.39400
N1091       N  0.30747975  0.01940166  0.13908571    -0.37200
N1092       N  0.30560838  0.07468782  0.07883757    -0.39600
N1093       N  0.21971942  0.10105827  0.10006289    -0.39400
N1094       N  0.21622544  0.15442910  0.03738299    -0.37000
N1095       N  0.33848875  0.21450085  0.08189647    -0.38000
N1096       N  0.34562667  0.15583358  0.14006367    -0.39700
C1097       C  0.22495132  0.91093948  0.36683256    -0.04600
C1098       C  0.21225094  0.88586250  0.35957443     0.09500
C1099       C  0.20119966  0.88264525  0.33288804    -0.02000
C1100       C  0.20419379  0.90375964  0.31314170    -0.00300
C1101       C  0.21786846  0.92837349  0.32013284    -0.03900
C1102       C  0.22766065  0.93213307  0.34724093     0.03100
C1103       C  0.21230481  0.86232210  0.37954478     0.10000
C1104       C  0.18735481  0.85726626  0.32562423     0.35900
C1105       C  0.24092299  0.95779316  0.35484331     0.39300
C1106       C  0.19411046  0.86212094  0.40218298    -0.04300
C1107       C  0.19618097  0.84143238  0.42251234     0.02900
C1108       C  0.21628247  0.82042125  0.42022223    -0.03900
C1109       C  0.23365637  0.82001103  0.39666196    -0.00100
C1110       C  0.23177478  0.84097979  0.37664682    -0.02700
C1111       C  0.17339296  0.88349672  0.40456668     0.36600
C1112       C  0.25449226  0.79880837  0.39341640     0.40200
C1113       C  0.17724854  0.84167118  0.44560448     0.39400
C1114       C  0.25058960  0.84117493  0.35336992     0.36300
C1115       C  0.23603356  0.91459699  0.39430653     0.37000
C1116       C  0.19483872  0.89946094  0.28513243     0.40200
N1117       N  0.16207783  0.84199426  0.46394198    -0.37900
N1118       N  0.15692544  0.90060353  0.40632782    -0.39400
N1119       N  0.27106092  0.78191780  0.39062309    -0.37200
N1120       N  0.26550819  0.84141352  0.33481334    -0.39600
N1121       N  0.17631691  0.83702250  0.31985165    -0.39400
N1122       N  0.18760182  0.89602169  0.26275365    -0.37000
N1123       N  0.25148379  0.97825361  0.36080278    -0.38000
N1124       N  0.24480081  0.91753566  0.41620620    -0.39700
C1125       C  0.33462543  0.88105559  0.20927449    -0.04600
C1126       C  0.36273464  0.88840723  0.20910041     0.09500
C1127       C  0.37025639  0.91644904  0.20858427    -0.02000
C1128       C  0.34978711  0.93699309  0.20982281    -0.00300
C1129       C  0.32181761  0.92954786  0.21207560    -0.03900
C1130       C  0.31420987  0.90158561  0.21093854     0.03100
C1131       C  0.38424494  0.86681590  0.21341173     0.10000
C1132       C  0.39913123  0.92403692  0.20858298     0.35900
C1133       C  0.28538016  0.89399368  0.21281265     0.39300
C1134       C  0.39994341  0.85659607  0.19129597    -0.04300
C1135       C  0.42054829  0.83651805  0.19585423     0.02900
C1136       C  0.42533720  0.82601604  0.22278935    -0.03900
C1137       C  0.40910212  0.83662627  0.24495077    -0.00100
C1138       C  0.38901641  0.85694203  0.24016594    -0.02700
C1139       C  0.39482186  0.86699437  0.16378395     0.36600
C1140       C  0.41247914  0.82692150  0.27304591     0.40200
C1141       C  0.43716516  0.82756256  0.17269578     0.39400
C1142       C  0.37314761  0.86802591  0.26304769     0.36300
C1143       C  0.32684739  0.85224044  0.20935375     0.37000
C1144       C  0.35753671  0.96581629  0.21023623     0.40200
N1145       N  0.45033116  0.82063221  0.15408964    -0.37900
N1146       N  0.39063819  0.87538842  0.14192837    -0.39400
N1147       N  0.41515457  0.81949521  0.29550131    -0.37200
N1148       N  0.36054686  0.87682763  0.28122001    -0.39600
N1149       N  0.42217739  0.92999321  0.20869383    -0.39400
N1150       N  0.36369331  0.98876717  0.21053500    -0.37000
N1151       N  0.26237526  0.88805126  0.21436138    -0.38000
N1152       N  0.32070022  0.82928680  0.20953889    -0.39700
C1153       C  0.89161457  0.84195179  0.69973480    -0.04600
C1154       C  0.88601536  0.86165119  0.72040317     0.09500
C1155       C  0.90120817  0.86090099  0.74519388    -0.02000
C1156       C  0.92202077  0.84101714  0.74909985    -0.00300
C1157       C  0.92752996  0.82122837  0.72846859    -0.03900
C1158       C  0.91205056  0.82166078  0.70388955     0.03100
C1159       C  0.86419022  0.88325709  0.71634995     0.10000
C1160       C  0.89515089  0.88052302  0.76692941     0.35900
C1161       C  0.91767350  0.80161201  0.68249171     0.39300
C1162       C  0.83597868  0.87606204  0.71639486    -0.04300
C1163       C  0.81560102  0.89673916  0.71531402     0.02900
C1164       C  0.82313544  0.92472008  0.71625046    -0.03900
C1165       C  0.85122414  0.93198199  0.71524760    -0.00100
C1166       C  0.87163894  0.91131294  0.71426906    -0.02700
C1167       C  0.82784709  0.84746949  0.71893622     0.36600
C1168       C  0.85914232  0.96071853  0.71650707     0.40200
C1169       C  0.78673279  0.88933881  0.71363695     0.39400
C1170       C  0.90044512  0.91884898  0.71195921     0.36300
C1171       C  0.87647389  0.84274550  0.67406042     0.37000
C1172       C  0.93719039  0.84041672  0.77481499     0.40200
N1173       N  0.76371510  0.88357199  0.71179632    -0.37900
N1174       N  0.82133333  0.82469490  0.72099597    -0.39400
N1175       N  0.86551189  0.98359078  0.71771880    -0.37200
N1176       N  0.92344262  0.92470450  0.71010059    -0.39600
N1177       N  0.89036116  0.89628306  0.78408486    -0.39400
N1178       N  0.94925402  0.84001323  0.79531503    -0.37000
N1179       N  0.92217797  0.78565948  0.66544338    -0.38000
N1180       N  0.86425436  0.84330634  0.65366201    -0.39700
C1181       C  0.65466284  0.10681144  0.80089562    -0.04600
C1182       C  0.63123319  0.10610291  0.78380373     0.09500
C1183       C  0.62800100  0.08448560  0.76480330    -0.02000
C1184       C  0.64869219  0.06438576  0.76186667    -0.00300
C1185       C  0.67260833  0.06526988  0.77860077    -0.03900
C1186       C  0.67524477  0.08642519  0.79839296     0.03100
C1187       C  0.61152390  0.12974654  0.78333688     0.10000
C1188       C  0.60366900  0.08360233  0.74747807     0.35900
C1189       C  0.69915013  0.08732309  0.81622482     0.39300
C1190       C  0.61518230  0.15074336  0.76369046    -0.04300
C1191       C  0.59599873  0.17236966  0.76170535     0.02900
C1192       C  0.57292569  0.17339221  0.77961535    -0.03900
C1193       C  0.56938467  0.15230497  0.79939052    -0.00100
C1194       C  0.58863734  0.13055376  0.80120170    -0.02700
C1195       C  0.63844982  0.14953101  0.74488890     0.36600
C1196       C  0.54618571  0.15308511  0.81814556     0.40200
C1197       C  0.59933146  0.19270683  0.74003978     0.39400
C1198       C  0.58473025  0.10863133  0.82108255     0.36300
C1199       C  0.65782304  0.12901706  0.82053929     0.37000
C1200       C  0.64613527  0.04405278  0.74011406     0.40200
N1201       N  0.60201159  0.20878864  0.72270609    -0.37900
N1202       N  0.65693109  0.14834237  0.72991763    -0.39400
N1203       N  0.52779608  0.15350665  0.83326608    -0.37200
N1204       N  0.58166211  0.09109561  0.83685194    -0.39600
N1205       N  0.58429296  0.08295775  0.73372285    -0.39400
N1206       N  0.64411930  0.02802806  0.72264252    -0.37000
N1207       N  0.71814505  0.08812877  0.83046791    -0.38000
N1208       N  0.66027763  0.14676539  0.83618590    -0.39700
C1209       C  0.58493292  0.97859277  0.62341281    -0.04600
C1210       C  0.60686152  0.96015219  0.61867977     0.09500
C1211       C  0.60632545  0.94296012  0.59534083    -0.02000
C1212       C  0.58474455  0.94519355  0.57602197    -0.00300
C1213       C  0.56369609  0.96504746  0.57965929    -0.03900
C1214       C  0.56351009  0.98117947  0.60400494     0.03100
C1215       C  0.63144476  0.96045710  0.63728765     0.10000
C1216       C  0.62847960  0.92341193  0.59097336     0.35900
C1217       C  0.54224212  0.00173687  0.60850979     0.39300
C1218       C  0.63141654  0.94544109  0.66208400    -0.04300
C1219       C  0.65357281  0.94790792  0.68071901     0.02900
C1220       C  0.67590222  0.96578602  0.67486808    -0.03900
C1221       C  0.67628678  0.97996440  0.64932682    -0.00100
C1222       C  0.65431903  0.97700635  0.63058833    -0.02700
C1223       C  0.60838136  0.92753190  0.66840712     0.36600
C1224       C  0.69841578  0.99894760  0.64276344     0.40200
C1225       C  0.65343073  0.93173076  0.70581344     0.39400
C1226       C  0.65491080  0.99143861  0.60442434     0.36300
C1227       C  0.58501201  0.99568953  0.64790918     0.37000
C1228       C  0.58409402  0.92681340  0.55253060     0.40200
N1229       N  0.65331313  0.91881162  0.72579141    -0.37900
N1230       N  0.59002970  0.91323400  0.67337399    -0.39400
N1231       N  0.71593790  0.01414816  0.63745108    -0.37200
N1232       N  0.65536659  0.00271876  0.58348586    -0.39600
N1233       N  0.64623576  0.90792966  0.58758780    -0.39400
N1234       N  0.58353741  0.91204710  0.53389171    -0.37000
N1235       N  0.52534420  0.01811720  0.61214696    -0.38000
N1236       N  0.58504793  0.00925995  0.66744128    -0.39700
C1237       C  0.73763057  0.86638059  0.90578467    -0.04600
C1238       C  0.71645153  0.86148383  0.88664442     0.09500
C1239       C  0.69955597  0.83808850  0.88955187    -0.02000
C1240       C  0.70417182  0.81931044  0.91124832    -0.00300
C1241       C  0.72559419  0.82402978  0.93041380    -0.03900
C1242       C  0.74222948  0.84784212  0.92752450     0.03100
C1243       C  0.71370410  0.88012275  0.86233922     0.10000
C1244       C  0.67782724  0.83308480  0.86975144     0.35900
C1245       C  0.76458937  0.85330376  0.94654054     0.39300
C1246       C  0.72703829  0.87318107  0.83751977    -0.04300
C1247       C  0.72931108  0.89275818  0.81630242     0.02900
C1248       C  0.71771282  0.91926197  0.81942567    -0.03900
C1249       C  0.70273190  0.92555160  0.84356623    -0.00100
C1250       C  0.70114124  0.90616278  0.86515254    -0.02700
C1251       C  0.73995369  0.84639239  0.83452375     0.36600
C1252       C  0.69075188  0.95265513  0.84708198     0.40200
C1253       C  0.74464967  0.88586213  0.79164583     0.39400
C1254       C  0.68827895  0.91357582  0.89107443     0.36300
C1255       C  0.75524830  0.89032554  0.90258853     0.37000
C1256       C  0.68809619  0.79419940  0.91262213     0.40200
N1257       N  0.75720340  0.88009958  0.77228683    -0.37900
N1258       N  0.75027751  0.82508541  0.83212348    -0.39400
N1259       N  0.68119553  0.97425872  0.84996666    -0.37200
N1260       N  0.67840903  0.91946140  0.91191732    -0.39600
N1261       N  0.66052194  0.82908761  0.85395033    -0.39400
N1262       N  0.67547047  0.77407092  0.91361471    -0.37000
N1263       N  0.78277448  0.85773164  0.96118572    -0.38000
N1264       N  0.76920223  0.90940461  0.89998959    -0.39700
C1265       C  0.59265511  0.10723103  0.45093855    -0.04600
C1266       C  0.61536933  0.10820150  0.46893322     0.09500
C1267       C  0.61910735  0.08678424  0.48817649    -0.02000
C1268       C  0.59920350  0.06571670  0.49088779    -0.00300
C1269       C  0.57576291  0.06516474  0.47346129    -0.03900
C1270       C  0.57325230  0.08563586  0.45286080     0.03100
C1271       C  0.63446337  0.13257987  0.46891383     0.10000
C1272       C  0.64347231  0.08673005  0.50544792     0.35900
C1273       C  0.55098581  0.08424373  0.43313840     0.39300
C1274       C  0.63111542  0.15349517  0.48878268    -0.04300
C1275       C  0.64981675  0.17569151  0.49008252     0.02900
C1276       C  0.67254861  0.17698104  0.47177747    -0.03900
C1277       C  0.67514082  0.15662021  0.45110345    -0.00100
C1278       C  0.65614477  0.13460929  0.44963286    -0.02700
C1279       C  0.60862979  0.15176083  0.50843426     0.36600
C1280       C  0.69707553  0.15860046  0.43090622     0.40200
C1281       C  0.64619307  0.19655597  0.51115514     0.39400
C1282       C  0.65906946  0.11375277  0.42851788     0.36300
C1283       C  0.58904620  0.12884310  0.43067370     0.37000
C1284       C  0.60220361  0.04565120  0.51280430     0.40200
N1285       N  0.64324032  0.21326394  0.52784517    -0.37900
N1286       N  0.59081316  0.15028661  0.52415854    -0.39400
N1287       N  0.71442540  0.16023463  0.41469215    -0.37200
N1288       N  0.66129322  0.09715697  0.41160938    -0.39600
N1289       N  0.66302458  0.08671844  0.51897622    -0.39400
N1290       N  0.60463175  0.02982042  0.53040485    -0.37000
N1291       N  0.53344404  0.08313632  0.41714663    -0.38000
N1292       N  0.58623908  0.14607709  0.41453313    -0.39700
C1293       C  0.86766460  0.33802875  0.54442731    -0.04600
C1294       C  0.86448193  0.36369573  0.53123858     0.09500
C1295       C  0.84002973  0.36933514  0.51667055    -0.02000
C1296       C  0.81964428  0.34889267  0.51387614    -0.00300
C1297       C  0.82349589  0.32251127  0.52564123    -0.03900
C1298       C  0.84728304  0.31747205  0.54164450     0.03100
C1299       C  0.88767605  0.38403412  0.53073104     0.10000
C1300       C  0.83610140  0.39619262  0.50424136     0.35900
C1301       C  0.85155021  0.29071396  0.55408592     0.39300
C1302       C  0.90468697  0.38579363  0.50721421    -0.04300
C1303       C  0.92581111  0.40557538  0.50586872     0.02900
C1304       C  0.93042768  0.42358882  0.52821994    -0.03900
C1305       C  0.91382416  0.42147906  0.55199772    -0.00100
C1306       C  0.89230413  0.40194148  0.55312739    -0.02700
C1307       C  0.90000811  0.36753676  0.48406469     0.36600
C1308       C  0.91932202  0.43895447  0.57551298     0.40200
C1309       C  0.94205638  0.40824628  0.48085909     0.39400
C1310       C  0.87442173  0.40065224  0.57700606     0.36300
C1311       C  0.89234818  0.33260821  0.56031261     0.37000
C1312       C  0.79446453  0.35517503  0.49904029     0.40200
N1313       N  0.95497305  0.41056108  0.46098732    -0.37900
N1314       N  0.89622537  0.35307223  0.46558041    -0.39400
N1315       N  0.92382907  0.45263471  0.59442350    -0.37200
N1316       N  0.86003877  0.39966432  0.59595969    -0.39600
N1317       N  0.83303329  0.41763025  0.49438330    -0.39400
N1318       N  0.77440099  0.36015556  0.48728294    -0.37000
N1319       N  0.85510209  0.26940371  0.56403792    -0.38000
N1320       N  0.91197289  0.32844017  0.57307168    -0.39700
C1321       C  0.72269849  0.33878987  0.37937249    -0.04600
C1322       C  0.71084870  0.36394976  0.38774467     0.09500
C1323       C  0.70029164  0.36659012  0.41466654    -0.02000
C1324       C  0.70283402  0.34469843  0.43358646    -0.00300
C1325       C  0.71609223  0.32002071  0.42571445    -0.03900
C1326       C  0.72533693  0.31693827  0.39825906     0.03100
C1327       C  0.71164548  0.38822614  0.36879740     0.10000
C1328       C  0.68779963  0.39235565  0.42316319     0.35900
C1329       C  0.73801784  0.29131623  0.38949395     0.39300
C1330       C  0.69283902  0.39046444  0.34681013    -0.04300
C1331       C  0.69593666  0.41147192  0.32696737     0.02900
C1332       C  0.71777310  0.43056938  0.32921967    -0.03900
C1333       C  0.73512238  0.42962098  0.35261979    -0.00100
C1334       C  0.73239611  0.40824887  0.37198535    -0.02700
C1335       C  0.67074901  0.37058294  0.34428189     0.36600
C1336       C  0.75570282  0.45086081  0.35698898     0.40200
C1337       C  0.67742183  0.41253877  0.30360685     0.39400
C1338       C  0.75162038  0.40627516  0.39475723     0.36300
C1339       C  0.73314181  0.33583244  0.35152598     0.37000
C1340       C  0.69352001  0.34836805  0.46166920     0.40200
N1341       N  0.66262999  0.41342432  0.28501170    -0.37900
N1342       N  0.65316344  0.35470250  0.34231823    -0.39400
N1343       N  0.77198302  0.46784886  0.36049503    -0.37200
N1344       N  0.76697093  0.40468956  0.41284503    -0.39600
N1345       N  0.67798985  0.41294461  0.42991160    -0.39400
N1346       N  0.68613622  0.35150861  0.48406773    -0.37000
N1347       N  0.74815037  0.27096690  0.38249799    -0.38000
N1348       N  0.74138520  0.33356203  0.32930386    -0.39700
C1349       C  0.66571345  0.25972348  0.62167074    -0.04600
C1350       C  0.64438236  0.27932104  0.62036258     0.09500
C1351       C  0.64363651  0.29838920  0.59852552    -0.02000
C1352       C  0.66351945  0.29713939  0.57735821    -0.00300
C1353       C  0.68437858  0.27684868  0.57804325    -0.03900
C1354       C  0.68579234  0.25862708  0.60079015     0.03100
C1355       C  0.62163158  0.27846253  0.64101508     0.10000
C1356       C  0.62181817  0.31879420  0.59752313     0.35900
C1357       C  0.70709755  0.23765541  0.60219302     0.39300
C1358       C  0.62177445  0.29623549  0.66392844    -0.04300
C1359       C  0.60041196  0.29489857  0.68357689     0.02900
C1360       C  0.57913015  0.27533331  0.68072465    -0.03900
C1361       C  0.57915100  0.25744585  0.65769635    -0.00100
C1362       C  0.60025410  0.25913998  0.63790967    -0.02700
C1363       C  0.64429315  0.31547082  0.66750785     0.36600
C1364       C  0.55809082  0.23642447  0.65480710     0.40200
C1365       C  0.59987741  0.31430968  0.70617409     0.39400
C1366       C  0.60045917  0.24045756  0.61457918     0.36300
C1367       C  0.66620616  0.23987803  0.64399352     0.37000
C1368       C  0.66265865  0.31698409  0.55516040     0.40200
N1369       N  0.59947883  0.33010072  0.72392945    -0.37900
N1370       N  0.66234580  0.33067728  0.67040273    -0.39400
N1371       N  0.54138261  0.21966313  0.65242000    -0.37200
N1372       N  0.60080094  0.22551140  0.59609095    -0.39600
N1373       N  0.60440772  0.33499017  0.59685207    -0.39400
N1374       N  0.66172569  0.33309019  0.53767966    -0.37000
N1375       N  0.72406775  0.22102352  0.60344538    -0.38000
N1376       N  0.66638314  0.22392395  0.66165355    -0.39700
C1377       C  0.79684810  0.08782804  0.63508253    -0.04600
C1378       C  0.78141895  0.11236110  0.63636794     0.09500
C1379       C  0.76390284  0.11719167  0.65900778    -0.02000
C1380       C  0.76081499  0.09706932  0.67967771    -0.00300
C1381       C  0.77577536  0.07201161  0.67818858    -0.03900
C1382       C  0.79431362  0.06785797  0.65602975     0.03100
C1383       C  0.78147810  0.13214800  0.61277512     0.10000
C1384       C  0.74820608  0.14260334  0.66037292     0.35900
C1385       C  0.81102366  0.04313920  0.65484355     0.39300
C1386       C  0.76345838  0.12778999  0.59052870    -0.04300
C1387       C  0.76095533  0.14769421  0.56958427     0.02900
C1388       C  0.77674957  0.17228358  0.57053661    -0.03900
C1389       C  0.79538172  0.17615202  0.59266584    -0.00100
C1390       C  0.79775391  0.15609238  0.61355970    -0.02700
C1391       C  0.74686376  0.10296277  0.58972698     0.36600
C1392       C  0.81223247  0.20070389  0.59409556     0.40200
C1393       C  0.74078803  0.14324637  0.54797501     0.39400
C1394       C  0.81682457  0.16012846  0.63616375     0.36300
C1395       C  0.81480726  0.08289265  0.61171511     0.37000
C1396       C  0.74083036  0.10166969  0.70148063     0.40200
N1397       N  0.72467988  0.13952962  0.53089916    -0.37900
N1398       N  0.73375330  0.08312175  0.58922170    -0.39400
N1399       N  0.82561383  0.22032742  0.59544703    -0.37200
N1400       N  0.83204207  0.16328540  0.65412715    -0.39600
N1401       N  0.73579025  0.16288571  0.66134418    -0.39400
N1402       N  0.72480645  0.10544499  0.71869479    -0.37000
N1403       N  0.82436259  0.02343744  0.65395938    -0.38000
N1404       N  0.82898724  0.07893539  0.59300306    -0.39700
C1405       C  0.10917691  0.15589612  0.30006814    -0.04600
C1406       C  0.10746533  0.13052791  0.28619879     0.09500
C1407       C  0.08307265  0.12361962  0.27215250    -0.02000
C1408       C  0.06121733  0.14272521  0.27020767    -0.00300
C1409       C  0.06356864  0.16917499  0.28251239    -0.03900
C1410       C  0.08717638  0.17486068  0.29876156     0.03100
C1411       C  0.13203688  0.11188269  0.28447966     0.10000
C1412       C  0.08103098  0.09705051  0.25863651     0.35900
C1413       C  0.08895422  0.20023214  0.31442663     0.39300
C1414       C  0.13634884  0.09105177  0.30423928    -0.04300
C1415       C  0.15834751  0.07220917  0.30112113     0.02900
C1416       C  0.17621836  0.07414779  0.27818595    -0.03900
C1417       C  0.17194921  0.09523289  0.25859452    -0.00100
C1418       C  0.15021259  0.11418187  0.26192202    -0.02700
C1419       C  0.11777260  0.08882886  0.32753841     0.36600
C1420       C  0.18858269  0.09612748  0.23375348     0.40200
C1421       C  0.16252606  0.05075731  0.32141947     0.39400
C1422       C  0.14601349  0.13574535  0.24169613     0.36300
C1423       C  0.13412897  0.16288861  0.31482459     0.37000
C1424       C  0.03702870  0.13526861  0.25439937     0.40200
N1425       N  0.16580590  0.03364522  0.33762629    -0.37900
N1426       N  0.10292216  0.08715648  0.34606101    -0.39400
N1427       N  0.20150627  0.09654213  0.21377597    -0.37200
N1428       N  0.14264802  0.15296457  0.22562933    -0.39600
N1429       N  0.07952739  0.07591333  0.24788714    -0.39400
N1430       N  0.01777688  0.12910914  0.24183643    -0.37000
N1431       N  0.09029825  0.22040923  0.32691806    -0.38000
N1432       N  0.15407900  0.16856922  0.32647252    -0.39700
C1433       C  0.83872682  0.37750616  0.22655110    -0.04600
C1434       C  0.86149804  0.38427851  0.20979923     0.09500
C1435       C  0.86115861  0.40910464  0.19472660    -0.02000
C1436       C  0.83892988  0.42776661  0.19762411    -0.00300
C1437       C  0.81714845  0.42192725  0.21610784    -0.03900
C1438       C  0.81674613  0.39622068  0.22977069     0.03100
C1439       C  0.88663343  0.36622617  0.21024907     0.10000
C1440       C  0.88428980  0.41582623  0.17707416     0.35900
C1441       C  0.79368471  0.38909779  0.24744605     0.39300
C1442       C  0.88865601  0.34296067  0.19300574    -0.04300
C1443       C  0.90999773  0.32350133  0.19692604     0.02900
C1444       C  0.92955235  0.32727900  0.21817286    -0.03900
C1445       C  0.92870338  0.35179083  0.23388673    -0.00100
C1446       C  0.90740787  0.37113648  0.22990059    -0.02700
C1447       C  0.86842111  0.33891718  0.17147692     0.36600
C1448       C  0.94989499  0.35721276  0.25424457     0.40200
C1449       C  0.91092138  0.29893918  0.18004699     0.39400
C1450       C  0.90654303  0.39602864  0.24634297     0.36300
C1451       C  0.83842227  0.35153926  0.24129420     0.37000
C1452       C  0.83925179  0.45358645  0.18268556     0.40200
N1453       N  0.91170049  0.27934079  0.16656811    -0.37900
N1454       N  0.85240399  0.33583811  0.15420304    -0.39400
N1455       N  0.96678167  0.36148718  0.27040575    -0.37200
N1456       N  0.90591808  0.41597451  0.25929252    -0.39600
N1457       N  0.90281630  0.42112079  0.16308754    -0.39400
N1458       N  0.83948679  0.47411180  0.17066468    -0.37000
N1459       N  0.77529787  0.38351738  0.26151551    -0.38000
N1460       N  0.83818508  0.33083895  0.25299922    -0.39700
C1461       C  0.13341435  0.26308802  0.09847040    -0.04600
C1462       C  0.13800065  0.28156519  0.12037476     0.09500
C1463       C  0.16166729  0.29837976  0.12010491    -0.02000
C1464       C  0.18069636  0.29665772  0.09814531    -0.00300
C1465       C  0.17653122  0.27761724  0.07651635    -0.03900
C1466       C  0.15279053  0.26071664  0.07696818     0.03100
C1467       C  0.11892168  0.28151046  0.14467423     0.10000
C1468       C  0.16691362  0.31672716  0.14302184     0.35900
C1469       C  0.14942540  0.23903726  0.05675465     0.39300
C1470       C  0.11991667  0.25953198  0.16362716    -0.04300
C1471       C  0.10006963  0.25747111  0.18472300     0.02900
C1472       C  0.07917023  0.27765568  0.18725476    -0.03900
C1473       C  0.07964267  0.30082885  0.16973594    -0.00100
C1474       C  0.09914225  0.30252654  0.14820478    -0.02700
C1475       C  0.14100670  0.23851509  0.16079147     0.36600
C1476       C  0.06053235  0.32328763  0.17444419     0.40200
C1477       C  0.10050797  0.23381940  0.20297651     0.39400
C1478       C  0.09835081  0.32544846  0.12914205     0.36300
C1479       C  0.10913071  0.24565376  0.09866909     0.37000
C1480       C  0.20472257  0.31437939  0.09798429     0.40200
N1481       N  0.10096376  0.21498993  0.21752402    -0.37900
N1482       N  0.15777905  0.22181083  0.15835495    -0.39400
N1483       N  0.04555800  0.34133609  0.17853064    -0.37200
N1484       N  0.09769207  0.34371350  0.11391311    -0.39600
N1485       N  0.17111569  0.33126052  0.16136130    -0.39400
N1486       N  0.22391198  0.32843245  0.09788921    -0.37000
N1487       N  0.14685111  0.22132725  0.04111467    -0.38000
N1488       N  0.08988836  0.23167592  0.09891026    -0.39700
C1489       C  0.05159396  0.38394459  0.41028411    -0.04600
C1490       C  0.03359267  0.38299045  0.38757018     0.09500
C1491       C  0.01398913  0.40405261  0.38397610    -0.02000
C1492       C  0.01186063  0.42563892  0.40323573    -0.00300
C1493       C  0.02929703  0.42631424  0.42666696    -0.03900
C1494       C  0.04940478  0.40541080  0.42980823     0.03100
C1495       C  0.03360271  0.35882110  0.36841845     0.10000
C1496       C  0.99507746  0.40280111  0.36087408     0.35900
C1497       C  0.06810536  0.40590958  0.45300817     0.39300
C1498       C  0.01836486  0.33509375  0.37532976    -0.04300
C1499       C  0.01492171  0.31381073  0.35593531     0.02900
C1500       C  0.02682513  0.31601681  0.32947351    -0.03900
C1501       C  0.04331749  0.33909427  0.32307295    -0.00100
C1502       C  0.04653619  0.36051302  0.34243237    -0.02700
C1503       C  0.00528915  0.33316399  0.40213813     0.36600
C1504       C  0.05563180  0.34155367  0.29595590     0.40200
C1505       C  0.99892941  0.28964607  0.36314288     0.39400
C1506       C  0.06219047  0.38487415  0.33525324     0.36300
C1507       C  0.07201766  0.36244123  0.41373060     0.37000
C1508       C  0.99046884  0.44618929  0.39959462     0.40200
N1509       N  0.98621411  0.27038227  0.36890237    -0.37900
N1510       N  0.99491202  0.33176250  0.42351156    -0.39400
N1511       N  0.06538004  0.34341847  0.27431294    -0.37200
N1512       N  0.07455737  0.40434522  0.32944961    -0.39600
N1513       N  0.97999661  0.40168421  0.34255429    -0.39400
N1514       N  0.97340481  0.46255883  0.39666526    -0.37000
N1515       N  0.08317405  0.40598597  0.47135440    -0.38000
N1516       N  0.08826404  0.34524359  0.41644095    -0.39700
C1517       C  0.90204747  0.18996318  0.35655889    -0.04600
C1518       C  0.87728954  0.20511013  0.35665513     0.09500
C1519       C  0.87139202  0.22309051  0.33465882    -0.02000
C1520       C  0.89116962  0.22771154  0.31391614    -0.00300
C1521       C  0.91681221  0.21389611  0.31470242    -0.03900
C1522       C  0.92172037  0.19417369  0.33554932     0.03100
C1523       C  0.85969880  0.20594633  0.38192516     0.10000
C1524       C  0.84538211  0.23780661  0.33417730     0.35900
C1525       C  0.94786870  0.17979605  0.33667084     0.39300
C1526       C  0.86487299  0.22632095  0.40185752    -0.04300
C1527       C  0.84689104  0.22967566  0.42431281     0.02900
C1528       C  0.82307460  0.21299982  0.42680173    -0.03900
C1529       C  0.81943348  0.19083604  0.40821440    -0.00100
C1530       C  0.83757987  0.18755796  0.38565425    -0.02700
C1531       C  0.88848823  0.24437862  0.39874359     0.36600
C1532       C  0.79677730  0.17177179  0.41176035     0.40200
C1533       C  0.85324387  0.25021580  0.44507881     0.39400
C1534       C  0.83313278  0.16574702  0.36580761     0.36300
C1535       C  0.90784560  0.17123389  0.37906180     0.37000
C1536       C  0.88538954  0.24732349  0.29212600     0.40200
N1537       N  0.85835544  0.26653231  0.46159585    -0.37900
N1538       N  0.90730124  0.25870068  0.39609517    -0.39400
N1539       N  0.77896318  0.15627737  0.41472123    -0.37200
N1540       N  0.82957494  0.14834442  0.35001899    -0.39600
N1541       N  0.82461796  0.24946385  0.33383494    -0.39400
N1542       N  0.88085979  0.26305723  0.27487320    -0.37000
N1543       N  0.96874350  0.16837458  0.33762211    -0.38000
N1544       N  0.91234188  0.15640295  0.39709480    -0.39700
C1545       C  0.87242940  0.83871595  0.04748717    -0.04600
C1546       C  0.86676918  0.86591836  0.03892634     0.09500
C1547       C  0.83947585  0.87350491  0.03247179    -0.02000
C1548       C  0.81832567  0.85369361  0.03303694    -0.00300
C1549       C  0.82437442  0.82606101  0.03952683    -0.03900
C1550       C  0.85119900  0.81887263  0.04799676     0.03100
C1551       C  0.88967805  0.88615671  0.03476468     0.10000
C1552       C  0.83347263  0.90144464  0.02383663     0.35900
C1553       C  0.85709236  0.79080381  0.05624993     0.39300
C1554       C  0.90529308  0.88542605  0.01032990    -0.04300
C1555       C  0.92609036  0.90508322  0.00555164     0.02900
C1556       C  0.93031610  0.92706637  0.02440774    -0.03900
C1557       C  0.91447894  0.92763112  0.04900040    -0.00100
C1558       C  0.89478880  0.90689138  0.05436290    -0.02700
C1559       C  0.89925636  0.86481339  0.98955430     0.36600
C1560       C  0.91723711  0.95019182  0.06834246     0.40200
C1561       C  0.94338018  0.90211319  0.98131199     0.39400
C1562       C  0.87928685  0.90705256  0.07989889     0.36300
C1563       C  0.90037496  0.83093492  0.05450937     0.37000
C1564       C  0.79021803  0.86158709  0.02673290     0.40200
N1565       N  0.95716267  0.89966497  0.96201991    -0.37900
N1566       N  0.89426002  0.84858725  0.97293054    -0.39400
N1567       N  0.91922907  0.96819294  0.08374523    -0.37200
N1568       N  0.86694887  0.90704932  0.10027026    -0.39600
N1569       N  0.82881259  0.92369457  0.01687504    -0.39400
N1570       N  0.76774671  0.86783182  0.02198399    -0.37000
N1571       N  0.86166899  0.76847765  0.06303547    -0.38000
N1572       N  0.92270557  0.82474053  0.05993050    -0.39700
C1573       C  0.12413643  0.09304992  0.98234712    -0.04600
C1574       C  0.12122457  0.11348891  0.96192712     0.09500
C1575       C  0.09897205  0.11203873  0.94336936    -0.02000
C1576       C  0.07861897  0.09156758  0.94644987    -0.00300
C1577       C  0.08073716  0.07178529  0.96767678    -0.03900
C1578       C  0.10424152  0.07204537  0.98498307     0.03100
C1579       C  0.14054479  0.13754485  0.96111361     0.10000
C1580       C  0.09704288  0.13186061  0.92113365     0.35900
C1581       C  0.10753004  0.05140642  0.00635869     0.39300
C1582       C  0.16748559  0.13464669  0.95074373    -0.04300
C1583       C  0.18635452  0.15669334  0.95257041     0.02900
C1584       C  0.17811522  0.18240327  0.96394341    -0.03900
C1585       C  0.14983272  0.18607297  0.97070460    -0.00100
C1586       C  0.13171565  0.16341574  0.97076972    -0.02700
C1587       C  0.17576480  0.10878157  0.93834049     0.36600
C1588       C  0.13879763  0.21303514  0.97721014     0.40200
C1589       C  0.21407325  0.15271384  0.94210745     0.39400
C1590       C  0.10408199  0.16645972  0.98183721     0.36300
C1591       C  0.14721817  0.09420393  0.00127069     0.37000
C1592       C  0.05566975  0.09066758  0.92743900     0.40200
N1593       N  0.23609349  0.14918902  0.93376408    -0.37900
N1594       N  0.18229142  0.08819368  0.92833393    -0.39400
N1595       N  0.12970835  0.23454514  0.98186896    -0.37200
N1596       N  0.08216560  0.16876460  0.99086940    -0.39600
N1597       N  0.09565532  0.14764626  0.90340402    -0.39400
N1598       N  0.03741125  0.09002639  0.91223611    -0.37000
N1599       N  0.11030226  0.03489647  0.02326287    -0.38000
N1600       N  0.16560461  0.09511295  0.01631908    -0.39700
C1601       C  0.06144767  0.85340439  0.84933274    -0.04600
C1602       C  0.04019191  0.86022466  0.86799356     0.09500
C1603       C  0.01626528  0.84377517  0.86902342    -0.02000
C1604       C  0.01267898  0.82200790  0.85022281    -0.00300
C1605       C  0.03321072  0.81614699  0.83039779    -0.03900
C1606       C  0.05808096  0.83121396  0.83078738     0.03100
C1607       C  0.04152104  0.88582481  0.88521627     0.10000
C1608       C  0.99488801  0.84990159  0.88904394     0.35900
C1609       C  0.08046349  0.82334780  0.81266167     0.39300
C1610       C  0.02520610  0.90871042  0.87789326    -0.04300
C1611       C  0.02198628  0.93090257  0.89625367     0.02900
C1612       C  0.03510207  0.93052424  0.92224264    -0.03900
C1613       C  0.05358578  0.90880491  0.92840878    -0.00100
C1614       C  0.05657119  0.88643536  0.91001925    -0.02700
C1615       C  0.01089146  0.90888573  0.85171570     0.36600
C1616       C  0.06857009  0.90865330  0.95417496     0.40200
C1617       C  0.00498660  0.95418753  0.88830722     0.39400
C1618       C  0.07428815  0.86347298  0.91710348     0.36300
C1619       C  0.08645113  0.86966580  0.84883184     0.37000
C1620       C  0.98718506  0.80642301  0.85051458     0.40200
N1621       N  0.99143626  0.97271742  0.88206196    -0.37900
N1622       N  0.99941868  0.90892343  0.83087660    -0.39400
N1623       N  0.08075995  0.90848372  0.97459465    -0.37200
N1624       N  0.08850221  0.84524342  0.92271825    -0.39600
N1625       N  0.97793251  0.85494227  0.90499452    -0.39400
N1626       N  0.96686932  0.79404060  0.85076499    -0.32200
N1627       N  0.09853899  0.81684918  0.79857558    -0.38000
N1628       N  0.10638969  0.88264559  0.84855706    -0.39700
C1629       C  0.13023069  0.95695876  0.16106322    -0.04600
C1630       C  0.13384587  0.96726842  0.13423988     0.09500
C1631       C  0.15919398  0.97908172  0.12662507    -0.02000
C1632       C  0.18019292  0.98256970  0.14628281    -0.00300
C1633       C  0.17653273  0.97288466  0.17367665    -0.03900
C1634       C  0.15158597  0.95927451  0.18058811     0.03100
C1635       C  0.11019231  0.96870837  0.11467753     0.10000
C1636       C  0.16322900  0.98850854  0.09853146     0.35900
C1637       C  0.14759365  0.94770774  0.20783807     0.39300
C1638       C  0.09371608  0.99258967  0.11417253    -0.04300
C1639       C  0.07436816  0.99648485  0.09299716     0.02900
C1640       C  0.07020996  0.97576819  0.07301687    -0.03900
C1641       C  0.08595981  0.95135386  0.07420765    -0.00100
C1642       C  0.10603298  0.94791502  0.09490198    -0.02700
C1643       C  0.09721771  0.01346957  0.13524081     0.36600
C1644       C  0.08159580  0.92982379  0.05406398     0.40200
C1645       C  0.06061545  0.02287275  0.09038069     0.39400
C1646       C  0.12271079  0.92318327  0.09571612     0.36300
C1647       C  0.10414145  0.94460303  0.16872059     0.37000
C1648       C  0.20459476  0.99798009  0.13844052     0.40200
N1649       N  0.05024026  0.04415712  0.08805941    -0.37900
N1650       N  0.09993745  0.02990008  0.15220690    -0.39400
N1651       N  0.07812760  0.91260881  0.03804939    -0.37200
N1652       N  0.13597812  0.90343777  0.09637668    -0.39600
N1653       N  0.16637779  0.99581741  0.07610493    -0.39400
N1654       N  0.22384603  0.01045659  0.13205673    -0.37000
N1655       N  0.14437390  0.93859237  0.22958363    -0.38000
N1656       N  0.08333370  0.93482913  0.17487438    -0.39700
C1657       C  0.86770643  0.01460640  0.84338480    -0.04600
C1658       C  0.86602289  0.03814220  0.86024904     0.09500
C1659       C  0.84425541  0.05695120  0.85628528    -0.02000
C1660       C  0.82355150  0.05165294  0.83648787    -0.00300
C1661       C  0.82455504  0.02743580  0.82017813    -0.03900
C1662       C  0.84750984  0.00950307  0.82320640     0.03100
C1663       C  0.88652026  0.04188558  0.88310264     0.10000
C1664       C  0.84302875  0.08165072  0.87298196     0.35900
C1665       C  0.85098855  0.98589777  0.80515794     0.39300
C1666       C  0.91367764  0.05061886  0.87736327    -0.04300
C1667       C  0.93426698  0.04901227  0.89786455     0.02900
C1668       C  0.92788568  0.03839823  0.92415727    -0.03900
C1669       C  0.90027467  0.03159200  0.93043126    -0.00100
C1670       C  0.87967231  0.03351066  0.91006581    -0.02700
C1671       C  0.92061328  0.06010943  0.84992656     0.36600
C1672       C  0.89319866  0.02186380  0.95778393     0.40200
C1673       C  0.96237375  0.05664791  0.89138031     0.39400
C1674       C  0.85154914  0.02570716  0.91646994     0.36300
C1675       C  0.89009957  0.99517804  0.84729233     0.37000
C1676       C  0.80090815  0.07088031  0.83365040     0.40200
N1677       N  0.98477809  0.06273609  0.88614491    -0.37900
N1678       N  0.92610514  0.06758756  0.82801568    -0.39400
N1679       N  0.88755018  0.01411071  0.97955843    -0.37200
N1680       N  0.82907995  0.01964579  0.92148365    -0.39600
N1681       N  0.84206846  0.10132728  0.88628663    -0.39400
N1682       N  0.78298276  0.08638621  0.83140645    -0.37000
N1683       N  0.85380740  0.96711983  0.79083958    -0.38000
N1684       N  0.90792350  0.97972099  0.85046026    -0.39700
C1685       C  0.94698988  0.14528426  0.14788320    -0.04600
C1686       C  0.96723498  0.14274383  0.12717691     0.09500
C1687       C  0.98986087  0.16096428  0.12692430    -0.02000
C1688       C  0.99253601  0.18118480  0.14757336    -0.00300
C1689       C  0.97245124  0.18350183  0.16860161    -0.03900
C1690       C  0.94940424  0.16575670  0.16831940     0.03100
C1691       C  0.96599605  0.11965678  0.10676309     0.10000
C1692       C  0.01109443  0.15793555  0.10607915     0.35900
C1693       C  0.92801284  0.16875213  0.18895578     0.39300
C1694       C  0.95793695  0.12453763  0.07934034    -0.04300
C1695       C  0.95945064  0.10327274  0.05957247     0.02900
C1696       C  0.96965334  0.07691407  0.06696623    -0.03900
C1697       C  0.97604830  0.07175846  0.09505494    -0.00100
C1698       C  0.97420527  0.09301462  0.11470543    -0.02700
C1699       C  0.94836321  0.15170234  0.07143911     0.36600
C1700       C  0.98559815  0.04489855  0.10404454     0.40200
C1701       C  0.94989442  0.10849535  0.03179194     0.39400
C1702       C  0.98147248  0.08768933  0.14318303     0.36300
C1703       C  0.92417916  0.12603199  0.14872466     0.37000
C1704       C  0.01693914  0.19845673  0.14807306     0.40200
N1705       N  0.94213325  0.11266254  0.00968087    -0.37900
N1706       N  0.94080652  0.17335288  0.06517188    -0.39400
N1707       N  0.99310126  0.02356870  0.11141379    -0.37200
N1708       N  0.98706645  0.08343981  0.16591830    -0.39600
N1709       N  0.02797775  0.15538405  0.08946166    -0.39400
N1710       N  0.03644033  0.21205380  0.14847936    -0.37000
N1711       N  0.91089216  0.17124328  0.20534010    -0.38000
N1712       N  0.90627434  0.11042956  0.14956164    -0.39700
loop_ 
_geom_bond_atom_site_label_1 
_geom_bond_atom_site_label_2 
_geom_bond_distance 
_geom_bond_site_symmetry_2 
_ccdc_geom_bond_type 
O1           C17   1.273       .  A
O1           Zn7   2.007   1_545  S
C2           O18   1.275       .  A
C2           O15   1.276       .  A
C2         C1612   1.494       .  S
O3           C16   1.276       .  A
O3          Cd10   2.090       .  S
O4           C22   1.275       .  A
O4          Cd13   2.076   1_554  S
O5           C19   1.279       .  A
O5           Cd9   2.090   1_455  S
O6           C17   1.280       .  A
O6           Cd9   2.112       .  S
Zn7          O18   2.012   1_655  S
Zn7          O20   2.005       .  S
Zn7          O12   1.925   1_665  S
O8           C19   1.275       .  A
O8          Cd13   2.070   1_545  S
Cd9          O11   2.086   1_556  S
Cd9          O12   2.012   1_655  S
Cd10         O14   2.068   1_565  S
Cd10         O23   2.072   1_655  S
Cd10         O12   2.004   1_664  S
O11          C21   1.278       .  A
O12         Cd13   2.011   1_545  S
Cd13         O15   2.087       .  S
O14          C21   1.275       .  A
C16          O20   1.272   1_554  A
C16        C1556   1.503       .  S
C17        C1668   1.490       .  S
C19        C1577   1.493       .  S
C21        C1696   1.501       .  S
C22          O23   1.275       .  A
C22        C1640   1.484       .  S
O24          C40   1.274   1_655  A
O24         Zn30   2.013       .  S
C25          O41   1.274       .  A
C25          O38   1.278       .  A
C25        C1444   1.495       .  S
O26          C39   1.276       .  A
O26         Cd33   2.089       .  S
O27          C45   1.277       .  A
O27         Cd36   2.081       .  S
O28          C42   1.274       .  A
O28         Cd32   2.068       .  S
O29          C40   1.276       .  A
O29         Cd32   2.086       .  S
Zn30         O41   2.012       .  S
Zn30         O43   2.009       .  S
Zn30         O35   1.936       .  S
O31          C42   1.277       .  A
O31         Cd36   2.084   1_455  S
Cd32         O34   2.069       .  S
Cd32         O35   2.006   1_455  S
Cd33         O37   2.085   1_655  S
Cd33         O46   2.079       .  S
Cd33         O35   2.014       .  S
O34          C44   1.276       .  A
O35         Cd36   2.014       .  S
Cd36         O38   2.101       .  S
O37          C44   1.276       .  A
C39          O43   1.273       .  A
C39        C1521   1.488       .  S
C40        C1500   1.486       .  S
C42        C1472   1.488       .  S
C44        C1409   1.505       .  S
C45          O46   1.277       .  A
C45        C1689   1.489       .  S
O47          C63   1.272       .  A
O47         Zn53   1.996       .  S
C48          O64   1.273       .  A
C48          O61   1.277       .  A
C48        C1297   1.492       .  S
O49          C62   1.276       .  A
O49         Cd56   2.091       .  S
O50          C68   1.276       .  A
O50         Cd59   2.080       .  S
O51          C65   1.277       .  A
O51         Cd55   2.087       .  S
O52          C63   1.279       .  A
O52         Cd55   2.102       .  S
Zn53         O64   2.010       .  S
Zn53         O66   1.993       .  S
Zn53         O58   1.923       .  S
O54          C65   1.274       .  A
O54         Cd59   2.059       .  S
Cd55         O57   2.091       .  S
Cd55         O58   2.013       .  S
Cd56         O60   2.082       .  S
Cd56         O69   2.068       .  S
Cd56         O58   2.011       .  S
O57          C67   1.278       .  A
O58         Cd59   2.009       .  S
Cd59         O61   2.096       .  S
O60          C67   1.277       .  A
C62          O66   1.272       .  A
C62        C1528   1.494       .  S
C63        C1325   1.488       .  S
C65        C1353   1.487       .  S
C67        C1276   1.498       .  S
C68          O69   1.275       .  A
C68        C1388   1.498       .  S
O70          C86   1.273   1_565  A
O70         Zn76   2.006       .  S
C71          O87   1.272       .  A
C71          O84   1.276       .  A
C71        C1248   1.485       .  S
O72          C85   1.278       .  A
O72         Cd79   2.101       .  S
O73          C91   1.275       .  A
O73         Cd82   2.073       .  S
O74          C88   1.278       .  A
O74         Cd78   2.085       .  S
O75          C86   1.278       .  A
O75         Cd78   2.101       .  S
Zn76         O87   2.002       .  S
Zn76         O89   1.997       .  S
Zn76         O81   1.926       .  S
O77          C88   1.274       .  A
O77         Cd82   2.060   1_545  S
Cd78         O80   2.070       .  S
Cd78         O81   2.014   1_545  S
Cd79         O83   2.081   1_565  S
Cd79         O92   2.086       .  S
Cd79         O81   2.015       .  S
O80          C90   1.275       .  A
O81         Cd82   2.007       .  S
Cd82         O84   2.091       .  S
O83          C90   1.277       .  A
C85          O89   1.271       .  A
C85        C1164   1.481       .  S
C86        C1661   1.505       .  S
C88        C1185   1.490       .  S
C90        C1381   1.494       .  S
C91          O92   1.277       .  A
C91        C1220   1.498       .  S
O93         C109   1.271       .  A
O93         Zn99   1.998       .  S
C94         O110   1.270   1_545  A
C94         O107   1.278       .  A
C94        C1045   1.492       .  S
O95         C108   1.277       .  A
O95        Cd102   2.093       .  S
O96         C114   1.279       .  A
O96        Cd105   2.090       .  S
O97         C111   1.275       .  A
O97        Cd101   2.063   1_545  S
O98         C109   1.274       .  A
O98        Cd101   2.082       .  S
Zn99        O110   1.985       .  S
Zn99        O112   1.990       .  S
Zn99        O104   1.921   1_565  S
O100        C111   1.275       .  A
O100       Cd105   2.076       .  S
Cd101       O103   2.064       .  S
Cd101       O104   2.006   1_565  S
Cd102       O106   2.075       .  S
Cd102       O115   2.076   1_565  S
Cd102       O104   2.007   1_565  S
O103        C113   1.274       .  A
O104       Cd105   2.009       .  S
Cd105       O107   2.097       .  S
O106        C113   1.276       .  A
C108        O112   1.271       .  A
C108       C1101   1.482       .  S
C109       C1129   1.476       .  S
C111       C1080   1.503       .  S
C113       C1633   1.499       .  S
C114        O115   1.275       .  A
C114       C1416   1.489       .  S
O116        C132   1.272       .  A
O116       Zn122   1.993       .  S
C117        O133   1.273   1_655  A
C117        O130   1.276       .  A
C117       C1017   1.487       .  S
O118        C131   1.278       .  A
O118       Cd125   2.098       .  S
O119        C137   1.275       .  A
O119       Cd128   2.075       .  S
O120        C134   1.278       .  A
O120       Cd124   2.086   1_655  S
O121        C132   1.277       .  A
O121       Cd124   2.093       .  S
Zn122       O133   2.010       .  S
Zn122       O135   2.003       .  S
Zn122       O127   1.927       .  S
O123        C134   1.276       .  A
O123       Cd128   2.074       .  S
Cd124       O126   2.075       .  S
Cd124       O127   2.011       .  S
Cd125       O129   2.089       .  S
Cd125       O138   2.075   1_455  S
Cd125       O127   2.013       .  S
O126        C136   1.276       .  A
O127       Cd128   2.009   1_455  S
Cd128       O130   2.090       .  S
O129        C136   1.278       .  A
C131        O135   1.273       .  A
C131        C933   1.494       .  S
C132        C989   1.489       .  S
C134        C961   1.490       .  S
C136       C1493   1.498       .  S
C137        O138   1.276       .  A
C137       C1304   1.484       .  S
O139        C155   1.272       .  A
O139       Zn145   1.999       .  S
C140        O156   1.272       .  A
C140        O153   1.278       .  A
C140        C877   1.492       .  S
O141        C154   1.277       .  A
O141       Cd148   2.094       .  S
O142        C160   1.277       .  A
O142       Cd151   2.088       .  S
O143        C157   1.276       .  A
O143       Cd147   2.074       .  S
O144        C155   1.277       .  A
O144       Cd147   2.094       .  S
Zn145       O156   1.995       .  S
Zn145       O158   1.994       .  S
Zn145       O150   1.920       .  S
O146        C157   1.276       .  A
O146       Cd151   2.074       .  S
Cd147       O149   2.054       .  S
Cd147       O150   2.007       .  S
Cd148       O152   2.080       .  S
Cd148       O161   2.069       .  S
Cd148       O150   2.009       .  S
O149        C159   1.273       .  A
O150       Cd151   2.012       .  S
Cd151       O153   2.099       .  S
O152        C159   1.276       .  A
C154        O158   1.272       .  A
C154        C821   1.493       .  S
C155        C905   1.494       .  S
C157        C849   1.498       .  S
C159       C1360   1.484       .  S
C160        O161   1.276       .  A
C160       C1192   1.492       .  S
O162        C178   1.272       .  A
O162       Zn168   1.993       .  S
C163        O179   1.271       .  A
C163        O176   1.277       .  A
C163       C1241   1.491       .  S
O164        C177   1.276       .  A
O164       Cd171   2.097       .  S
O165        C183   1.275       .  A
O165       Cd174   2.074   1_554  S
O166        C180   1.277       .  A
O166       Cd170   2.083       .  S
O167        C178   1.278       .  A
O167       Cd170   2.102       .  S
Zn168       O179   1.992       .  S
Zn168       O181   1.995   1_556  S
Zn168       O173   1.922   1_556  S
O169        C180   1.276       .  A
O169       Cd174   2.073       .  S
Cd170       O172   2.079   1_556  S
Cd170       O173   2.014   1_556  S
Cd171       O175   2.074       .  S
Cd171       O184   2.082       .  S
Cd171       O173   2.008       .  S
O172        C182   1.277       .  A
O173       Cd174   2.010   1_554  S
Cd174       O176   2.088       .  S
O175        C182   1.276       .  A
C177        O181   1.271       .  A
C177       C1549   1.481       .  S
C178        C793   1.491       .  S
C180        C709   1.486       .  S
C182        C765   1.503       .  S
C183        O184   1.277       .  A
C183        C737   1.484       .  S
O185        C201   1.272       .  A
O185       Zn191   2.004       .  S
C186        O202   1.273       .  A
C186        O199   1.276       .  A
C186        C653   1.487       .  S
O187        C200   1.275       .  A
O187       Cd194   2.092       .  S
O188        C206   1.277       .  A
O188       Cd197   2.082   1_554  S
O189        C203   1.275       .  A
O189       Cd193   2.071       .  S
O190        C201   1.276       .  A
O190       Cd193   2.081       .  S
Zn191       O202   1.999       .  S
Zn191       O204   1.998   1_556  S
Zn191       O196   1.928   1_556  S
O192        C203   1.276       .  A
O192       Cd197   2.082       .  S
Cd193       O195   2.063   1_556  S
Cd193       O196   2.005   1_556  S
Cd194       O198   2.068       .  S
Cd194       O207   2.076       .  S
Cd194       O196   2.011       .  S
O195        C205   1.274       .  A
O196       Cd197   2.008   1_554  S
Cd197       O199   2.087       .  S
O198        C205   1.275       .  A
C200        O204   1.271       .  A
C200        C688   1.478       .  S
C201        C884   1.485       .  S
C203       C1584   1.509       .  S
C205       C1073   1.479       .  S
C206        O207   1.276       .  A
C206       C1465   1.492       .  S
O208        C224   1.272       .  A
O208       Zn214   1.993       .  S
C209        O225   1.273       .  A
C209        O222   1.278       .  A
C209       C1437   1.494       .  S
O210        C223   1.277       .  A
O210       Cd217   2.099       .  S
O211        C229   1.274       .  A
O211       Cd220   2.062       .  S
O212        C226   1.276       .  A
O212       Cd216   2.084       .  S
O213        C224   1.277       .  A
O213       Cd216   2.089       .  S
Zn214       O225   2.006       .  S
Zn214       O227   2.000       .  S
Zn214       O219   1.924       .  S
O215        C226   1.278       .  A
O215       Cd220   2.083       .  S
Cd216       O218   2.069       .  S
Cd216       O219   2.015       .  S
Cd217       O221   2.079       .  S
Cd217       O230   2.079       .  S
Cd217       O219   2.015       .  S
O218        C228   1.275       .  A
O219       Cd220   2.007       .  S
Cd220       O222   2.106       .  S
O221        C228   1.277       .  A
C223        O227   1.272       .  A
C223        C968   1.489       .  S
C224       C1332   1.489       .  S
C226        C604   1.501       .  S
C228        C632   1.489       .  S
C229        O230   1.276       .  A
C229        C772   1.480       .  S
O231        C247   1.273       .  A
O231       Zn237   2.014       .  S
C232        O248   1.273   1_545  A
C232        O245   1.279       .  A
C232       C1052   1.494       .  S
O233        C246   1.280       .  A
O233       Cd240   2.106       .  S
O234        C252   1.278       .  A
O234       Cd243   2.089       .  S
O235        C249   1.276       .  A
O235       Cd239   2.077   1_545  S
O236        C247   1.277       .  A
O236       Cd239   2.100       .  S
Zn237       O248   2.000       .  S
Zn237       O250   2.000       .  S
Zn237       O242   1.929       .  S
O238        C249   1.276       .  A
O238       Cd243   2.074       .  S
Cd239       O241   2.075       .  S
Cd239       O242   2.015       .  S
Cd240       O244   2.081       .  S
Cd240       O253   2.095   1_565  S
Cd240       O242   2.014       .  S
O241        C251   1.276       .  A
O242       Cd243   2.013   1_565  S
Cd243       O245   2.105       .  S
O244        C251   1.277       .  A
C246        O250   1.273       .  A
C246        C548   1.500       .  S
C247        C569   1.488       .  S
C249        C856   1.491       .  S
C251       C1213   1.495       .  S
C252        O253   1.278       .  A
C252       C1269   1.503       .  S
O254        C270   1.270   1_455  A
O254       Zn260   1.988       .  S
C255        O271   1.270       .  A
C255        O268   1.279       .  A
C255        C485   1.487       .  S
O256        C269   1.277       .  A
O256       Cd263   2.098       .  S
O257        C275   1.278       .  A
O257       Cd266   2.091       .  S
O258        C272   1.277       .  A
O258       Cd262   2.081       .  S
O259        C270   1.276       .  A
O259       Cd262   2.097       .  S
Zn260       O271   1.985       .  S
Zn260       O273   1.990       .  S
Zn260       O265   1.922       .  S
O261        C272   1.277       .  A
O261       Cd266   2.085   1_655  S
Cd262       O264   2.065       .  S
Cd262       O265   2.012   1_655  S
Cd263       O267   2.073   1_455  S
Cd263       O276   2.084       .  S
Cd263       O265   2.010       .  S
O264        C274   1.275       .  A
O265       Cd266   2.009       .  S
Cd266       O268   2.100       .  S
O267        C274   1.276       .  A
C269        O273   1.271       .  A
C269        C513   1.484       .  S
C270       C1024   1.495       .  S
C272       C1157   1.489       .  S
C274        C800   1.489       .  S
C275        O276   1.277       .  A
C275       C1605   1.490       .  S
O277        C293   1.268       .  A
O277       Zn283   1.980       .  S
C278        O294   1.272       .  A
C278        O291   1.279       .  A
C278        C457   1.487       .  S
O279        C292   1.277       .  A
O279       Cd286   2.103       .  S
O280        C298   1.278       .  A
O280       Cd289   2.083       .  S
O281        C295   1.276       .  A
O281       Cd285   2.078       .  S
O282        C293   1.276       .  A
O282       Cd285   2.098       .  S
Zn283       O294   1.998       .  S
Zn283       O296   1.987       .  S
Zn283       O288   1.914       .  S
O284        C295   1.278       .  A
O284       Cd289   2.092       .  S
Cd285       O287   2.066       .  S
Cd285       O288   2.010       .  S
Cd286       O290   2.071       .  S
Cd286       O299   2.073       .  S
Cd286       O288   2.008       .  S
O287        C297   1.274       .  A
O288       Cd289   2.010       .  S
Cd289       O291   2.107       .  S
O290        C297   1.276       .  A
C292        O296   1.270       .  A
C292        C541   1.484       .  S
C293       C1136   1.509       .  S
C295        C429   1.492       .  S
C297        C744   1.499       .  S
C298        O299   1.276       .  A
C298        C625   1.494       .  S
O300        C316   1.272       .  A
O300       Zn306   1.995       .  S
C301        O317   1.272       .  A
C301        O314   1.277       .  A
C301        C996   1.493       .  S
O302        C315   1.280       .  A
O302       Cd309   2.115       .  S
O303        C321   1.276       .  A
O303       Cd312   2.082       .  S
O304        C318   1.278       .  A
O304       Cd308   2.090       .  S
O305        C316   1.279       .  A
O305       Cd308   2.103       .  S
Zn306       O317   1.996       .  S
Zn306       O319   1.992       .  S
Zn306       O311   1.923       .  S
O307        C318   1.276       .  A
O307       Cd312   2.077       .  S
Cd308       O310   2.069       .  S
Cd308       O311   2.012       .  S
Cd309       O313   2.094       .  S
Cd309       O322   2.085       .  S
Cd309       O311   2.013       .  S
O310        C320   1.275       .  A
O311       Cd312   2.011       .  S
Cd312       O314   2.091       .  S
O313        C320   1.279       .  A
C315        O319   1.271       .  A
C315        C401   1.504       .  S
C316        C492   1.494       .  S
C318       C1108   1.499       .  S
C320        C576   1.489       .  S
C321        O322   1.277       .  A
C321        C464   1.488       .  S
O323        C339   1.274       .  A
O323       Zn329   2.016       .  S
C324        O340   1.273       .  A
C324        O337   1.277       .  A
C324        C373   1.494       .  S
O325        C338   1.277       .  A
O325       Cd332   2.095       .  S
O326        C344   1.277       .  A
O326       Cd335   2.085       .  S
O327        C341   1.275       .  A
O327       Cd331   2.074       .  S
O328        C339   1.276       .  A
O328       Cd331   2.090       .  S
Zn329       O340   1.998       .  S
Zn329       O342   1.998       .  S
Zn329       O334   1.924       .  S
O330        C341   1.277       .  A
O330       Cd335   2.081       .  S
Cd331       O333   2.077       .  S
Cd331       O334   2.012       .  S
Cd332       O336   2.073       .  S
Cd332       O345   2.065       .  S
Cd332       O334   2.011       .  S
O333        C343   1.276       .  A
O334       Cd335   2.013       .  S
Cd335       O337   2.094       .  S
O336        C343   1.276       .  A
C338        O342   1.272       .  A
C338        C660   1.495       .  S
C339        C912   1.484       .  S
C341        C408   1.497       .  S
C343        C940   1.490       .  S
C344        O345   1.274       .  A
C344        C520   1.483       .  S
O346        C362   1.272       .  A
O346       Zn352   2.004       .  S
C347        O363   1.272   1_554  A
C347        O360   1.277       .  A
C347        C681   1.510       .  S
O348        C361   1.277       .  A
O348       Cd355   2.090       .  S
O349        C367   1.276       .  A
O349       Cd358   2.080       .  S
O350        C364   1.276       .  A
O350       Cd354   2.065   1_554  S
O351        C362   1.275       .  A
O351       Cd354   2.082       .  S
Zn352       O363   2.005       .  S
Zn352       O365   1.994       .  S
Zn352       O357   1.925       .  S
O353        C364   1.276       .  A
O353       Cd358   2.074       .  S
Cd354       O356   2.071       .  S
Cd354       O357   2.001       .  S
Cd355       O359   2.074       .  S
Cd355       O368   2.078   1_556  S
Cd355       O357   2.003       .  S
O356        C366   1.274       .  A
O357       Cd358   2.009   1_556  S
Cd358       O360   2.093       .  S
O359        C366   1.275       .  A
C361        O365   1.272       .  A
C361        C380   1.479       .  S
C362        C828   1.485       .  S
C364        C597   1.484       .  S
C366        C716   1.506       .  S
C367        O368   1.276       .  A
C367        C436   1.505       .  S
C369        C370   1.411       .  A
C369        C374   1.415       .  A
C369        C387   1.451       .  S
C370        C375   1.497       .  S
C370        C371   1.410       .  A
C371        C372   1.407       .  A
C371        C376   1.453       .  S
C372        C373   1.419       .  A
C372        C388   1.454       .  S
C373        C374   1.418       .  A
C374        C377   1.450       .  S
C375        C378   1.412       .  A
C375        C382   1.413       .  A
C376        N393   1.156       .  T
C377        N395   1.157       .  T
C378        C379   1.408       .  A
C378        C383   1.452       .  S
C379        C380   1.413       .  A
C379        C385   1.453       .  S
C380        C381   1.411       .  A
C381        C382   1.412       .  A
C381        C384   1.451       .  S
C382        C386   1.451       .  S
C383        N390   1.156       .  T
C384        N391   1.156       .  T
C385        N389   1.156       .  T
C386        N392   1.156       .  T
C387        N396   1.156       .  T
C388        N394   1.157       .  T
C397        C398   1.411       .  A
C397        C402   1.417       .  A
C397        C415   1.451       .  S
C398        C403   1.502       .  S
C398        C399   1.409       .  A
C399        C400   1.410       .  A
C399        C404   1.453       .  S
C400        C401   1.424       .  A
C400        C416   1.454       .  S
C401        C402   1.419       .  A
C402        C405   1.450       .  S
C403        C406   1.410       .  A
C403        C410   1.411       .  A
C404        N421   1.157       .  T
C405        N423   1.157       .  T
C406        C407   1.410       .  A
C406        C411   1.452       .  S
C407        C408   1.419       .  A
C407        C413   1.453       .  S
C408        C409   1.419       .  A
C409        C410   1.415       .  A
C409        C412   1.451       .  S
C410        C414   1.451       .  S
C411        N418   1.157       .  T
C412        N419   1.157       .  T
C413        N417   1.156       .  T
C414        N420   1.156       .  T
C415        N424   1.156       .  T
C416        N422   1.157       .  T
C425        C426   1.413       .  A
C425        C430   1.415       .  A
C425        C443   1.450       .  S
C426        C431   1.503       .  S
C426        C427   1.411       .  A
C427        C428   1.411       .  A
C427        C432   1.453       .  S
C428        C429   1.416       .  A
C428        C444   1.451       .  S
C429        C430   1.414       .  A
C430        C433   1.451       .  S
C431        C434   1.410       .  A
C431        C438   1.410       .  A
C432        N449   1.156       .  T
C433        N451   1.156       .  T
C434        C435   1.414       .  A
C434        C439   1.451       .  S
C435        C436   1.421       .  A
C435        C441   1.452       .  S
C436        C437   1.423       .  A
C437        C438   1.413       .  A
C437        C440   1.453       .  S
C438        C442   1.452       .  S
C439        N446   1.156       .  T
C440        N447   1.156       .  T
C441        N445   1.157       .  T
C442        N448   1.157       .  T
C443        N452   1.156       .  T
C444        N450   1.156       .  T
C453        C454   1.414       .  A
C453        C458   1.416       .  A
C453        C471   1.450       .  S
C454        C459   1.504       .  S
C454        C455   1.412       .  A
C455        C456   1.410       .  A
C455        C460   1.451       .  S
C456        C457   1.414       .  A
C456        C472   1.452       .  S
C457        C458   1.413       .  A
C458        C461   1.450       .  S
C459        C462   1.413       .  A
C459        C466   1.413       .  A
C460        N477   1.157       .  T
C461        N479   1.157       .  T
C462        C463   1.411       .  A
C462        C467   1.452       .  S
C463        C464   1.414       .  A
C463        C469   1.453       .  S
C464        C465   1.413       .  A
C465        C466   1.415       .  A
C465        C468   1.450       .  S
C466        C470   1.450       .  S
C467        N474   1.156       .  T
C468        N475   1.156       .  T
C469        N473   1.157       .  T
C470        N476   1.156       .  T
C471        N480   1.156       .  T
C472        N478   1.156       .  T
C481        C482   1.412       .  A
C481        C486   1.410       .  A
C481        C499   1.453       .  S
C482        C487   1.500       .  S
C482        C483   1.412       .  A
C483        C484   1.413       .  A
C483        C488   1.451       .  S
C484        C485   1.413       .  A
C484        C500   1.450       .  S
C485        C486   1.417       .  A
C486        C489   1.454       .  S
C487        C490   1.412       .  A
C487        C494   1.410       .  A
C488        N505   1.156       .  T
C489        N507   1.156       .  T
C490        C491   1.414       .  A
C490        C495   1.451       .  S
C491        C492   1.415       .  A
C491        C497   1.450       .  S
C492        C493   1.419       .  A
C493        C494   1.409       .  A
C493        C496   1.453       .  S
C494        C498   1.453       .  S
C495        N502   1.156       .  T
C496        N503   1.157       .  T
C497        N501   1.156       .  T
C498        N504   1.156       .  T
C499        N508   1.157       .  T
C500        N506   1.157       .  T
C509        C510   1.411       .  A
C509        C514   1.413       .  A
C509        C527   1.451       .  S
C510        C515   1.496       .  S
C510        C511   1.410       .  A
C511        C512   1.408       .  A
C511        C516   1.451       .  S
C512        C513   1.414       .  A
C512        C528   1.454       .  S
C513        C514   1.414       .  A
C514        C517   1.450       .  S
C515        C518   1.411       .  A
C515        C522   1.411       .  A
C516        N533   1.157       .  T
C517        N535   1.157       .  T
C518        C519   1.409       .  A
C518        C523   1.453       .  S
C519        C520   1.415       .  A
C519        C525   1.453       .  S
C520        C521   1.412       .  A
C521        C522   1.413       .  A
C521        C524   1.450       .  S
C522        C526   1.450       .  S
C523        N530   1.156       .  T
C524        N531   1.156       .  T
C525        N529   1.157       .  T
C526        N532   1.157       .  T
C527        N536   1.156       .  T
C528        N534   1.156       .  T
C537        C538   1.410       .  A
C537        C542   1.409       .  A
C537        C555   1.452       .  S
C538        C543   1.498       .  S
C538        C539   1.412       .  A
C539        C540   1.413       .  A
C539        C544   1.450       .  S
C540        C541   1.412       .  A
C540        C556   1.449       .  S
C541        C542   1.415       .  A
C542        C545   1.453       .  S
C543        C546   1.408       .  A
C543        C550   1.409       .  A
C544        N561   1.157       .  T
C545        N563   1.157       .  T
C546        C547   1.409       .  A
C546        C551   1.454       .  S
C547        C548   1.422       .  A
C547        C553   1.452       .  S
C548        C549   1.420       .  A
C549        C550   1.415       .  A
C549        C552   1.450       .  S
C550        C554   1.450       .  S
C551        N558   1.156       .  T
C552        N559   1.157       .  T
C553        N557   1.156       .  T
C554        N560   1.156       .  T
C555        N564   1.156       .  T
C556        N562   1.155       .  T
C565        C566   1.412       .  A
C565        C570   1.410       .  A
C565        C583   1.451       .  S
C566        C571   1.502       .  S
C566        C567   1.413       .  A
C567        C568   1.415       .  A
C567        C572   1.450       .  S
C568        C569   1.413       .  A
C568        C584   1.450       .  S
C569        C570   1.413       .  A
C570        C573   1.451       .  S
C571        C574   1.412       .  A
C571        C578   1.412       .  A
C572        N589   1.156       .  T
C573        N591   1.157       .  T
C574        C575   1.415       .  A
C574        C579   1.450       .  S
C575        C576   1.413       .  A
C575        C581   1.450       .  S
C576        C577   1.416       .  A
C577        C578   1.411       .  A
C577        C580   1.453       .  S
C578        C582   1.452       .  S
C579        N586   1.156       .  T
C580        N587   1.157       .  T
C581        N585   1.156       .  T
C582        N588   1.156       .  T
C583        N592   1.157       .  T
C584        N590   1.157       .  T
C593        C594   1.412       .  A
C593        C598   1.413       .  A
C593        C611   1.450       .  S
C594        C599   1.498       .  S
C594        C595   1.411       .  A
C595        C596   1.408       .  A
C595        C600   1.453       .  S
C596        C597   1.416       .  A
C596        C612   1.453       .  S
C597        C598   1.412       .  A
C598        C601   1.451       .  S
C599        C602   1.409       .  A
C599        C606   1.409       .  A
C600        N617   1.156       .  T
C601        N619   1.156       .  T
C602        C603   1.412       .  A
C602        C607   1.451       .  S
C603        C604   1.418       .  A
C603        C609   1.452       .  S
C604        C605   1.423       .  A
C605        C606   1.413       .  A
C605        C608   1.451       .  S
C606        C610   1.454       .  S
C607        N614   1.157       .  T
C608        N615   1.157       .  T
C609        N613   1.156       .  T
C610        N616   1.156       .  T
C611        N620   1.156       .  T
C612        N618   1.156       .  T
C621        C622   1.408       .  A
C621        C626   1.412       .  A
C621        C639   1.451       .  S
C622        C627   1.497       .  S
C622        C623   1.410       .  A
C623        C624   1.411       .  A
C623        C628   1.452       .  S
C624        C625   1.419       .  A
C624        C640   1.453       .  S
C625        C626   1.418       .  A
C626        C629   1.450       .  S
C627        C630   1.410       .  A
C627        C634   1.411       .  A
C628        N645   1.156       .  T
C629        N647   1.156       .  T
C630        C631   1.413       .  A
C630        C635   1.451       .  S
C631        C632   1.416       .  A
C631        C637   1.451       .  S
C632        C633   1.417       .  A
C633        C634   1.409       .  A
C633        C636   1.454       .  S
C634        C638   1.452       .  S
C635        N642   1.156       .  T
C636        N643   1.156       .  T
C637        N641   1.157       .  T
C638        N644   1.156       .  T
C639        N648   1.156       .  T
C640        N646   1.156       .  T
C649        C650   1.410       .  A
C649        C654   1.413       .  A
C649        C667   1.451       .  S
C650        C655   1.495       .  S
C650        C651   1.409       .  A
C651        C652   1.407       .  A
C651        C656   1.452       .  S
C652        C653   1.416       .  A
C652        C668   1.452       .  S
C653        C654   1.416       .  A
C654        C657   1.451       .  S
C655        C658   1.410       .  A
C655        C662   1.407       .  A
C656        N673   1.156       .  T
C657        N675   1.157       .  T
C658        C659   1.415       .  A
C658        C663   1.451       .  S
C659        C660   1.419       .  A
C659        C665   1.451       .  S
C660        C661   1.420       .  A
C661        C662   1.406       .  A
C661        C664   1.451       .  S
C662        C666   1.454       .  S
C663        N670   1.156       .  T
C664        N671   1.156       .  T
C665        N669   1.156       .  T
C666        N672   1.156       .  T
C667        N676   1.156       .  T
C668        N674   1.156       .  T
C677        C678   1.408       .  A
C677        C682   1.411       .  A
C677        C695   1.455   1_554  S
C678        C683   1.500       .  S
C678        C679   1.408       .  A
C679        C680   1.415       .  A
C679        C684   1.451       .  S
C680        C681   1.424       .  A
C680        C696   1.451       .  S
C681        C682   1.428       .  A
C682        C685   1.453   1_554  S
C683        C686   1.413       .  A
C683        C690   1.413       .  A
C684        N701   1.157       .  T
C685        N703   1.157       .  T
C686        C687   1.411       .  A
C686        C691   1.451       .  S
C687        C688   1.411       .  A
C687        C693   1.451       .  S
C688        C689   1.410       .  A
C689        C690   1.410       .  A
C689        C692   1.451       .  S
C690        C694   1.451       .  S
C691        N698   1.156       .  T
C692        N699   1.156       .  T
C693        N697   1.156       .  T
C694        N700   1.156       .  T
C695        N704   1.156       .  T
C696        N702   1.157       .  T
C705        C706   1.411       .  A
C705        C710   1.410       .  A
C705        C723   1.452   1_556  S
C706        C711   1.497       .  S
C706        C707   1.410       .  A
C707        C708   1.411       .  A
C707        C712   1.451       .  S
C708        C709   1.413       .  A
C708        C724   1.448       .  S
C709        C710   1.416       .  A
C710        C713   1.452   1_556  S
C711        C714   1.408       .  A
C711        C718   1.408       .  A
C712        N729   1.156       .  T
C713        N731   1.156       .  T
C714        C715   1.413       .  A
C714        C719   1.452       .  S
C715        C716   1.423       .  A
C715        C721   1.452       .  S
C716        C717   1.425       .  A
C717        C718   1.410       .  A
C717        C720   1.452       .  S
C718        C722   1.453       .  S
C719        N726   1.156       .  T
C720        N727   1.157       .  T
C721        N725   1.157       .  T
C722        N728   1.156       .  T
C723        N732   1.156       .  T
C724        N730   1.156       .  T
C733        C734   1.410       .  A
C733        C738   1.413       .  A
C733        C751   1.451       .  S
C734        C739   1.494       .  S
C734        C735   1.410       .  A
C735        C736   1.407       .  A
C735        C740   1.452       .  S
C736        C737   1.414       .  A
C736        C752   1.453       .  S
C737        C738   1.414       .  A
C738        C741   1.450       .  S
C739        C742   1.407       .  A
C739        C746   1.408       .  A
C740        N757   1.156       .  T
C741        N759   1.157       .  T
C742        C743   1.410       .  A
C742        C747   1.453       .  S
C743        C744   1.424       .  A
C743        C749   1.452       .  S
C744        C745   1.421       .  A
C745        C746   1.411       .  A
C745        C748   1.452       .  S
C746        C750   1.452       .  S
C747        N754   1.156       .  T
C748        N755   1.157       .  T
C749        N753   1.157       .  T
C750        N756   1.156       .  T
C751        N760   1.156       .  T
C752        N758   1.156       .  T
C761        C762   1.407       .  A
C761        C766   1.410       .  A
C761        C779   1.453       .  S
C762        C767   1.495       .  S
C762        C763   1.408       .  A
C763        C764   1.413       .  A
C763        C768   1.451       .  S
C764        C765   1.423       .  A
C764        C780   1.452       .  S
C765        C766   1.424       .  A
C766        C769   1.452       .  S
C767        C770   1.411       .  A
C767        C774   1.412       .  A
C768        N785   1.157       .  T
C769        N787   1.157       .  T
C770        C771   1.407       .  A
C770        C775   1.453       .  S
C771        C772   1.414       .  A
C771        C777   1.454       .  S
C772        C773   1.411       .  A
C773        C774   1.413       .  A
C773        C776   1.451       .  S
C774        C778   1.450       .  S
C775        N782   1.156       .  T
C776        N783   1.156       .  T
C777        N781   1.157       .  T
C778        N784   1.156       .  T
C779        N788   1.156       .  T
C780        N786   1.157       .  T
C789        C790   1.410       .  A
C789        C794   1.412       .  A
C789        C807   1.452       .  S
C790        C795   1.495       .  S
C790        C791   1.410       .  A
C791        C792   1.409       .  A
C791        C796   1.452       .  S
C792        C793   1.417       .  A
C792        C808   1.453       .  S
C793        C794   1.415       .  A
C794        C797   1.448       .  S
C795        C798   1.409       .  A
C795        C802   1.410       .  A
C796        N813   1.157       .  T
C797        N815   1.156       .  T
C798        C799   1.409       .  A
C798        C803   1.453       .  S
C799        C800   1.419       .  A
C799        C805   1.453       .  S
C800        C801   1.415       .  A
C801        C802   1.411       .  A
C801        C804   1.452       .  S
C802        C806   1.450       .  S
C803        N810   1.156       .  T
C804        N811   1.155       .  T
C805        N809   1.158       .  T
C806        N812   1.157       .  T
C807        N816   1.156       .  T
C808        N814   1.156       .  T
C817        C818   1.409       .  A
C817        C822   1.413       .  A
C817        C835   1.452       .  S
C818        C823   1.496       .  S
C818        C819   1.410       .  A
C819        C820   1.408       .  A
C819        C824   1.452       .  S
C820        C821   1.418       .  A
C820        C836   1.454       .  S
C821        C822   1.417       .  A
C822        C825   1.448       .  S
C823        C826   1.412       .  A
C823        C830   1.411       .  A
C824        N841   1.157       .  T
C825        N843   1.156       .  T
C826        C827   1.409       .  A
C826        C831   1.452       .  S
C827        C828   1.414       .  A
C827        C833   1.453       .  S
C828        C829   1.415       .  A
C829        C830   1.411       .  A
C829        C832   1.451       .  S
C830        C834   1.451       .  S
C831        N838   1.157       .  T
C832        N839   1.157       .  T
C833        N837   1.156       .  T
C834        N840   1.156       .  T
C835        N844   1.156       .  T
C836        N842   1.156       .  T
C845        C846   1.409       .  A
C845        C850   1.413       .  A
C845        C863   1.452       .  S
C846        C851   1.497       .  S
C846        C847   1.408       .  A
C847        C848   1.410       .  A
C847        C852   1.453       .  S
C848        C849   1.422       .  A
C848        C864   1.453       .  S
C849        C850   1.420       .  A
C850        C853   1.450       .  S
C851        C854   1.410       .  A
C851        C858   1.410       .  A
C852        N869   1.156       .  T
C853        N871   1.156       .  T
C854        C855   1.410       .  A
C854        C859   1.452       .  S
C855        C856   1.419       .  A
C855        C861   1.454       .  S
C856        C857   1.416       .  A
C857        C858   1.412       .  A
C857        C860   1.450       .  S
C858        C862   1.452       .  S
C859        N866   1.157       .  T
C860        N867   1.157       .  T
C861        N865   1.156       .  T
C862        N868   1.156       .  T
C863        N872   1.156       .  T
C864        N870   1.157       .  T
C873        C874   1.409       .  A
C873        C878   1.408       .  A
C873        C891   1.452       .  S
C874        C879   1.495       .  S
C874        C875   1.410       .  A
C875        C876   1.413       .  A
C875        C880   1.452       .  S
C876        C877   1.417       .  A
C876        C892   1.449       .  S
C877        C878   1.418       .  A
C878        C881   1.454       .  S
C879        C882   1.410       .  A
C879        C886   1.411       .  A
C880        N897   1.156       .  T
C881        N899   1.156       .  T
C882        C883   1.411       .  A
C882        C887   1.451       .  S
C883        C884   1.414       .  A
C883        C889   1.451       .  S
C884        C885   1.416       .  A
C885        C886   1.409       .  A
C885        C888   1.452       .  S
C886        C890   1.453       .  S
C887        N894   1.156       .  T
C888        N895   1.157       .  T
C889        N893   1.156       .  T
C890        N896   1.156       .  T
C891        N900   1.157       .  T
C892        N898   1.157       .  T
C901        C902   1.411       .  A
C901        C906   1.412       .  A
C901        C919   1.452       .  S
C902        C907   1.501       .  S
C902        C903   1.412       .  A
C903        C904   1.410       .  A
C903        C908   1.452       .  S
C904        C905   1.418       .  A
C904        C920   1.454       .  S
C905        C906   1.416       .  A
C906        C909   1.448       .  S
C907        C910   1.414       .  A
C907        C914   1.413       .  A
C908        N925   1.157       .  T
C909        N927   1.157       .  T
C910        C911   1.409       .  A
C910        C915   1.452       .  S
C911        C912   1.411       .  A
C911        C917   1.451       .  S
C912        C913   1.413       .  A
C913        C914   1.413       .  A
C913        C916   1.450       .  S
C914        C918   1.451       .  S
C915        N922   1.157       .  T
C916        N923   1.156       .  T
C917        N921   1.156       .  T
C918        N924   1.156       .  T
C919        N928   1.155       .  T
C920        N926   1.156       .  T
C929        C930   1.410       .  A
C929        C934   1.413       .  A
C929        C947   1.451       .  S
C930        C935   1.497       .  S
C930        C931   1.410       .  A
C931        C932   1.410       .  A
C931        C936   1.452       .  S
C932        C933   1.419       .  A
C932        C948   1.453       .  S
C933        C934   1.416       .  A
C934        C937   1.449       .  S
C935        C938   1.410       .  A
C935        C942   1.410       .  A
C936        N953   1.156       .  T
C937        N955   1.155       .  T
C938        C939   1.410       .  A
C938        C943   1.453       .  S
C939        C940   1.418       .  A
C939        C945   1.453       .  S
C940        C941   1.415       .  A
C941        C942   1.413       .  A
C941        C944   1.451       .  S
C942        C946   1.450       .  S
C943        N950   1.156       .  T
C944        N951   1.156       .  T
C945        N949   1.157       .  T
C946        N952   1.156       .  T
C947        N956   1.156       .  T
C948        N954   1.157       .  T
C957        C958   1.411       .  A
C957        C962   1.412       .  A
C957        C975   1.450       .  S
C958        C963   1.500       .  S
C958        C959   1.411       .  A
C959        C960   1.412       .  A
C959        C964   1.452       .  S
C960        C961   1.418       .  A
C960        C976   1.453       .  S
C961        C962   1.413       .  A
C962        C965   1.449       .  S
C963        C966   1.411       .  A
C963        C970   1.412       .  A
C964        N981   1.156       .  T
C965        N983   1.155       .  T
C966        C967   1.409       .  A
C966        C971   1.452       .  S
C967        C968   1.415       .  A
C967        C973   1.452       .  S
C968        C969   1.415       .  A
C969        C970   1.415       .  A
C969        C972   1.451       .  S
C970        C974   1.450       .  S
C971        N978   1.156       .  T
C972        N979   1.157       .  T
C973        N977   1.157       .  T
C974        N980   1.156       .  T
C975        N984   1.156       .  T
C976        N982   1.157       .  T
C985        C986   1.410       .  A
C985        C990   1.413       .  A
C985       C1003   1.451       .  S
C986        C991   1.495       .  S
C986        C987   1.409       .  A
C987        C988   1.407       .  A
C987        C992   1.453       .  S
C988        C989   1.417       .  A
C988       C1004   1.453       .  S
C989        C990   1.415       .  A
C990        C993   1.449       .  S
C991        C994   1.409       .  A
C991        C998   1.409       .  A
C992       N1009   1.156       .  T
C993       N1011   1.156       .  T
C994        C995   1.408       .  A
C994        C999   1.453       .  S
C995        C996   1.419       .  A
C995       C1001   1.453       .  S
C996        C997   1.418       .  A
C997        C998   1.413       .  A
C997       C1000   1.451       .  S
C998       C1002   1.451       .  S
C999       N1006   1.157       .  T
C1000      N1007   1.156       .  T
C1001      N1005   1.157       .  T
C1002      N1008   1.156       .  T
C1003      N1012   1.156       .  T
C1004      N1010   1.157       .  T
C1013      C1014   1.412       .  A
C1013      C1018   1.412       .  A
C1013      C1031   1.451       .  S
C1014      C1019   1.500       .  S
C1014      C1015   1.413       .  A
C1015      C1016   1.411       .  A
C1015      C1020   1.452       .  S
C1016      C1017   1.414       .  A
C1016      C1032   1.452       .  S
C1017      C1018   1.414       .  A
C1018      C1021   1.450       .  S
C1019      C1022   1.411       .  A
C1019      C1026   1.412       .  A
C1020      N1037   1.156       .  T
C1021      N1039   1.156       .  T
C1022      C1023   1.409       .  A
C1022      C1027   1.453   1_655  S
C1023      C1024   1.420       .  A
C1023      C1029   1.455   1_655  S
C1024      C1025   1.417       .  A
C1025      C1026   1.414       .  A
C1025      C1028   1.450       .  S
C1026      C1030   1.451       .  S
C1027      N1034   1.157       .  T
C1028      N1035   1.157       .  T
C1029      N1033   1.156       .  T
C1030      N1036   1.156       .  T
C1031      N1040   1.156       .  T
C1032      N1038   1.156       .  T
C1041      C1042   1.411       .  A
C1041      C1046   1.414       .  A
C1041      C1059   1.450       .  S
C1042      C1047   1.498       .  S
C1042      C1043   1.410       .  A
C1043      C1044   1.408       .  A
C1043      C1048   1.453   1_545  S
C1044      C1045   1.419       .  A
C1044      C1060   1.454   1_545  S
C1045      C1046   1.416       .  A
C1046      C1049   1.451       .  S
C1047      C1050   1.410       .  A
C1047      C1054   1.411       .  A
C1048      N1065   1.156       .  T
C1049      N1067   1.156       .  T
C1050      C1051   1.410       .  A
C1050      C1055   1.453       .  S
C1051      C1052   1.419       .  A
C1051      C1057   1.453       .  S
C1052      C1053   1.415       .  A
C1053      C1054   1.414       .  A
C1053      C1056   1.448       .  S
C1054      C1058   1.451       .  S
C1055      N1062   1.156   1_545  T
C1056      N1063   1.155       .  T
C1057      N1061   1.157   1_545  T
C1058      N1064   1.157       .  T
C1059      N1068   1.156       .  T
C1060      N1066   1.156       .  T
C1069      C1070   1.412       .  A
C1069      C1074   1.410       .  A
C1069      C1087   1.451       .  S
C1070      C1075   1.494       .  S
C1070      C1071   1.411       .  A
C1071      C1072   1.407       .  A
C1071      C1076   1.452       .  S
C1072      C1073   1.414       .  A
C1072      C1088   1.454       .  S
C1073      C1074   1.412       .  A
C1074      C1077   1.451       .  S
C1075      C1078   1.407       .  A
C1075      C1082   1.408       .  A
C1076      N1093   1.156       .  T
C1077      N1095   1.157       .  T
C1078      C1079   1.410       .  A
C1078      C1083   1.454       .  S
C1079      C1080   1.425       .  A
C1079      C1085   1.451       .  S
C1080      C1081   1.423       .  A
C1081      C1082   1.410       .  A
C1081      C1084   1.453       .  S
C1082      C1086   1.452       .  S
C1083      N1090   1.156       .  T
C1084      N1091   1.156       .  T
C1085      N1089   1.158       .  T
C1086      N1092   1.157       .  T
C1087      N1096   1.156       .  T
C1088      N1094   1.156       .  T
C1097      C1098   1.412       .  A
C1097      C1102   1.409       .  A
C1097      C1115   1.452       .  S
C1098      C1103   1.501       .  S
C1098      C1099   1.414       .  A
C1099      C1100   1.413       .  A
C1099      C1104   1.450       .  S
C1100      C1101   1.411       .  A
C1100      C1116   1.451       .  S
C1101      C1102   1.414       .  A
C1102      C1105   1.453       .  S
C1103      C1106   1.410       .  A
C1103      C1110   1.410       .  A
C1104      N1121   1.156       .  T
C1105      N1123   1.157       .  T
C1106      C1107   1.414       .  A
C1106      C1111   1.451       .  S
C1107      C1108   1.417       .  A
C1107      C1113   1.450       .  S
C1108      C1109   1.422       .  A
C1109      C1110   1.412       .  A
C1109      C1112   1.453       .  S
C1110      C1114   1.453       .  S
C1111      N1118   1.157       .  T
C1112      N1119   1.157       .  T
C1113      N1117   1.156       .  T
C1114      N1120   1.156       .  T
C1115      N1124   1.156       .  T
C1116      N1122   1.156       .  T
C1125      C1126   1.412       .  A
C1125      C1130   1.409       .  A
C1125      C1143   1.452       .  S
C1126      C1131   1.496       .  S
C1126      C1127   1.412       .  A
C1127      C1128   1.410       .  A
C1127      C1132   1.451       .  S
C1128      C1129   1.410       .  A
C1128      C1144   1.452       .  S
C1129      C1130   1.411       .  A
C1130      C1133   1.451       .  S
C1131      C1134   1.408       .  A
C1131      C1138   1.406       .  A
C1132      N1149   1.157       .  T
C1133      N1151   1.157       .  T
C1134      C1135   1.415       .  A
C1134      C1139   1.451       .  S
C1135      C1136   1.425       .  A
C1135      C1141   1.451       .  S
C1136      C1137   1.430       .  A
C1137      C1138   1.408       .  A
C1137      C1140   1.454       .  S
C1138      C1142   1.456       .  S
C1139      N1146   1.156       .  T
C1140      N1147   1.157       .  T
C1141      N1145   1.157       .  T
C1142      N1148   1.156       .  T
C1143      N1152   1.156       .  T
C1144      N1150   1.156       .  T
C1153      C1154   1.414       .  A
C1153      C1158   1.414       .  A
C1153      C1171   1.450       .  S
C1154      C1159   1.505       .  S
C1154      C1155   1.415       .  A
C1155      C1156   1.411       .  A
C1155      C1160   1.453       .  S
C1156      C1157   1.415       .  A
C1156      C1172   1.452       .  S
C1157      C1158   1.413       .  A
C1158      C1161   1.451       .  S
C1159      C1162   1.415       .  A
C1159      C1166   1.415       .  A
C1160      N1177   1.156       .  T
C1161      N1179   1.156       .  T
C1162      C1163   1.411       .  A
C1162      C1167   1.451       .  S
C1163      C1164   1.410       .  A
C1163      C1169   1.451       .  S
C1164      C1165   1.410       .  A
C1165      C1166   1.412       .  A
C1165      C1168   1.451       .  S
C1166      C1170   1.451       .  S
C1167      N1174   1.156       .  T
C1168      N1175   1.156       .  T
C1169      N1173   1.157       .  T
C1170      N1176   1.156       .  T
C1171      N1180   1.157       .  T
C1172      N1178   1.157       .  T
C1181      C1182   1.411       .  A
C1181      C1186   1.412       .  A
C1181      C1199   1.450       .  S
C1182      C1187   1.496       .  S
C1182      C1183   1.409       .  A
C1183      C1184   1.409       .  A
C1183      C1188   1.453       .  S
C1184      C1185   1.420       .  A
C1184      C1200   1.453       .  S
C1185      C1186   1.415       .  A
C1186      C1189   1.451       .  S
C1187      C1190   1.409       .  A
C1187      C1194   1.410       .  A
C1188      N1205   1.156       .  T
C1189      N1207   1.155       .  T
C1190      C1191   1.408       .  A
C1190      C1195   1.454       .  S
C1191      C1192   1.419       .  A
C1191      C1197   1.453       .  S
C1192      C1193   1.416       .  A
C1193      C1194   1.414       .  A
C1193      C1196   1.449       .  S
C1194      C1198   1.451       .  S
C1195      N1202   1.156       .  T
C1196      N1203   1.156       .  T
C1197      N1201   1.157       .  T
C1198      N1204   1.156       .  T
C1199      N1208   1.157       .  T
C1200      N1206   1.157       .  T
C1209      C1210   1.410       .  A
C1209      C1214   1.411       .  A
C1209      C1227   1.452       .  S
C1210      C1215   1.499       .  S
C1210      C1211   1.410       .  A
C1211      C1212   1.413       .  A
C1211      C1216   1.451       .  S
C1212      C1213   1.417       .  A
C1212      C1228   1.451       .  S
C1213      C1214   1.420       .  A
C1214      C1217   1.453   1_565  S
C1215      C1218   1.409       .  A
C1215      C1222   1.410       .  A
C1216      N1233   1.156       .  T
C1217      N1235   1.157       .  T
C1218      C1219   1.413       .  A
C1218      C1223   1.451       .  S
C1219      C1220   1.419       .  A
C1219      C1225   1.451       .  S
C1220      C1221   1.420       .  A
C1221      C1222   1.412       .  A
C1221      C1224   1.453       .  S
C1222      C1226   1.453       .  S
C1223      N1230   1.156       .  T
C1224      N1231   1.157   1_565  T
C1225      N1229   1.157       .  T
C1226      N1232   1.156   1_565  T
C1227      N1236   1.156   1_565  T
C1228      N1234   1.157       .  T
C1237      C1238   1.409       .  A
C1237      C1242   1.407       .  A
C1237      C1255   1.454       .  S
C1238      C1243   1.495       .  S
C1238      C1239   1.410       .  A
C1239      C1240   1.413       .  A
C1239      C1244   1.450       .  S
C1240      C1241   1.417       .  A
C1240      C1256   1.451       .  S
C1241      C1242   1.419       .  A
C1242      C1245   1.452       .  S
C1243      C1246   1.409       .  A
C1243      C1250   1.412       .  A
C1244      N1261   1.156       .  T
C1245      N1263   1.156       .  T
C1246      C1247   1.408       .  A
C1246      C1251   1.453       .  S
C1247      C1248   1.414       .  A
C1247      C1253   1.449       .  S
C1248      C1249   1.413       .  A
C1249      C1250   1.413       .  A
C1249      C1252   1.450       .  S
C1250      C1254   1.451       .  S
C1251      N1258   1.157       .  T
C1252      N1259   1.157       .  T
C1253      N1257   1.155       .  T
C1254      N1260   1.156       .  T
C1255      N1264   1.156       .  T
C1256      N1262   1.156       .  T
C1265      C1266   1.410       .  A
C1265      C1270   1.415       .  A
C1265      C1283   1.451       .  S
C1266      C1271   1.506       .  S
C1266      C1267   1.412       .  A
C1267      C1268   1.415       .  A
C1267      C1272   1.452       .  S
C1268      C1269   1.421       .  A
C1268      C1284   1.452       .  S
C1269      C1270   1.417       .  A
C1270      C1273   1.448       .  S
C1271      C1274   1.412       .  A
C1271      C1278   1.412       .  A
C1272      N1289   1.156       .  T
C1273      N1291   1.156       .  T
C1274      C1275   1.413       .  A
C1274      C1279   1.452       .  S
C1275      C1276   1.418       .  A
C1275      C1281   1.452       .  S
C1276      C1277   1.416       .  A
C1277      C1278   1.416       .  A
C1277      C1280   1.451       .  S
C1278      C1282   1.450       .  S
C1279      N1286   1.156       .  T
C1280      N1287   1.156       .  T
C1281      N1285   1.157       .  T
C1282      N1288   1.157       .  T
C1283      N1292   1.156       .  T
C1284      N1290   1.157       .  T
C1293      C1294   1.412       .  A
C1293      C1298   1.414       .  A
C1293      C1311   1.451       .  S
C1294      C1299   1.500       .  S
C1294      C1295   1.411       .  A
C1295      C1296   1.411       .  A
C1295      C1300   1.451       .  S
C1296      C1297   1.417       .  A
C1296      C1312   1.453       .  S
C1297      C1298   1.415       .  A
C1298      C1301   1.450       .  S
C1299      C1302   1.412       .  A
C1299      C1306   1.413       .  A
C1300      N1317   1.157       .  T
C1301      N1319   1.156       .  T
C1302      C1303   1.409       .  A
C1302      C1307   1.452       .  S
C1303      C1304   1.414       .  A
C1303      C1309   1.454       .  S
C1304      C1305   1.412       .  A
C1305      C1306   1.414       .  A
C1305      C1308   1.450       .  S
C1306      C1310   1.450       .  S
C1307      N1314   1.156       .  T
C1308      N1315   1.156       .  T
C1309      N1313   1.156       .  T
C1310      N1316   1.156       .  T
C1311      N1320   1.156       .  T
C1312      N1318   1.156       .  T
C1321      C1322   1.411       .  A
C1321      C1326   1.410       .  A
C1321      C1339   1.452       .  S
C1322      C1327   1.498       .  S
C1322      C1323   1.411       .  A
C1323      C1324   1.412       .  A
C1323      C1328   1.451       .  S
C1324      C1325   1.414       .  A
C1324      C1340   1.448       .  S
C1325      C1326   1.415       .  A
C1326      C1329   1.453       .  S
C1327      C1330   1.411       .  A
C1327      C1334   1.411       .  A
C1328      N1345   1.156       .  T
C1329      N1347   1.156       .  T
C1330      C1331   1.413       .  A
C1330      C1335   1.450       .  S
C1331      C1332   1.415       .  A
C1331      C1337   1.451       .  S
C1332      C1333   1.418       .  A
C1333      C1334   1.408       .  A
C1333      C1336   1.454       .  S
C1334      C1338   1.453       .  S
C1335      N1342   1.156       .  T
C1336      N1343   1.157       .  T
C1337      N1341   1.156       .  T
C1338      N1344   1.156       .  T
C1339      N1348   1.157       .  T
C1340      N1346   1.156       .  T
C1349      C1350   1.409       .  A
C1349      C1354   1.407       .  A
C1349      C1367   1.452       .  S
C1350      C1355   1.492       .  S
C1350      C1351   1.410       .  A
C1351      C1352   1.411       .  A
C1351      C1356   1.452       .  S
C1352      C1353   1.414       .  A
C1352      C1368   1.448       .  S
C1353      C1354   1.419       .  A
C1354      C1357   1.454       .  S
C1355      C1358   1.410       .  A
C1355      C1362   1.409       .  A
C1356      N1373   1.156       .  T
C1357      N1375   1.156       .  T
C1358      C1359   1.411       .  A
C1358      C1363   1.451       .  S
C1359      C1360   1.413       .  A
C1359      C1365   1.449       .  S
C1360      C1361   1.418       .  A
C1361      C1362   1.407       .  A
C1361      C1364   1.454       .  S
C1362      C1366   1.453       .  S
C1363      N1370   1.156       .  T
C1364      N1371   1.157       .  T
C1365      N1369   1.156       .  T
C1366      N1372   1.156       .  T
C1367      N1376   1.157       .  T
C1368      N1374   1.156       .  T
C1377      C1378   1.410       .  A
C1377      C1382   1.412       .  A
C1377      C1395   1.451       .  S
C1378      C1383   1.497       .  S
C1378      C1379   1.410       .  A
C1379      C1380   1.410       .  A
C1379      C1384   1.453       .  S
C1380      C1381   1.420       .  A
C1380      C1396   1.453       .  S
C1381      C1382   1.417       .  A
C1382      C1385   1.451       .  S
C1383      C1386   1.409       .  A
C1383      C1390   1.409       .  A
C1384      N1401   1.157       .  T
C1385      N1403   1.157       .  T
C1386      C1387   1.410       .  A
C1386      C1391   1.453       .  S
C1387      C1388   1.422       .  A
C1387      C1393   1.454       .  S
C1388      C1389   1.420       .  A
C1389      C1390   1.413       .  A
C1389      C1392   1.450       .  S
C1390      C1394   1.452       .  S
C1391      N1398   1.157       .  T
C1392      N1399   1.157       .  T
C1393      N1397   1.156       .  T
C1394      N1400   1.155       .  T
C1395      N1404   1.156       .  T
C1396      N1402   1.156       .  T
C1405      C1406   1.409       .  A
C1405      C1410   1.413       .  A
C1405      C1423   1.450       .  S
C1406      C1411   1.501       .  S
C1406      C1407   1.410       .  A
C1407      C1408   1.413       .  A
C1407      C1412   1.453       .  S
C1408      C1409   1.423       .  A
C1408      C1424   1.451       .  S
C1409      C1410   1.421       .  A
C1410      C1413   1.453       .  S
C1411      C1414   1.412       .  A
C1411      C1418   1.411       .  A
C1412      N1429   1.156       .  T
C1413      N1431   1.156       .  T
C1414      C1415   1.415       .  A
C1414      C1419   1.451       .  S
C1415      C1416   1.415       .  A
C1415      C1421   1.450       .  S
C1416      C1417   1.415       .  A
C1417      C1418   1.410       .  A
C1417      C1420   1.452       .  S
C1418      C1422   1.452       .  S
C1419      N1426   1.156       .  T
C1420      N1427   1.156       .  T
C1421      N1425   1.157       .  T
C1422      N1428   1.157       .  T
C1423      N1432   1.157       .  T
C1424      N1430   1.158       .  T
C1433      C1434   1.412       .  A
C1433      C1438   1.411       .  A
C1433      C1451   1.452       .  S
C1434      C1439   1.503       .  S
C1434      C1435   1.412       .  A
C1435      C1436   1.417       .  A
C1435      C1440   1.450       .  S
C1436      C1437   1.416       .  A
C1436      C1452   1.450       .  S
C1437      C1438   1.416       .  A
C1438      C1441   1.453       .  S
C1439      C1442   1.411       .  A
C1439      C1446   1.411       .  A
C1440      N1457   1.156       .  T
C1441      N1459   1.156       .  T
C1442      C1443   1.416       .  A
C1442      C1447   1.451       .  S
C1443      C1444   1.417       .  A
C1443      C1449   1.450       .  S
C1444      C1445   1.416       .  A
C1445      C1446   1.411       .  A
C1445      C1448   1.454       .  S
C1446      C1450   1.451       .  S
C1447      N1454   1.156       .  T
C1448      N1455   1.156       .  T
C1449      N1453   1.157       .  T
C1450      N1456   1.157       .  T
C1451      N1460   1.156       .  T
C1452      N1458   1.157       .  T
C1461      C1462   1.412       .  A
C1461      C1466   1.410       .  A
C1461      C1479   1.453       .  S
C1462      C1467   1.500       .  S
C1462      C1463   1.411       .  A
C1463      C1464   1.413       .  A
C1463      C1468   1.450       .  S
C1464      C1465   1.416       .  A
C1464      C1480   1.451       .  S
C1465      C1466   1.417       .  A
C1466      C1469   1.451       .  S
C1467      C1470   1.412       .  A
C1467      C1474   1.412       .  A
C1468      N1485   1.156       .  T
C1469      N1487   1.156       .  T
C1470      C1471   1.410       .  A
C1470      C1475   1.453       .  S
C1471      C1472   1.417       .  A
C1471      C1477   1.453       .  S
C1472      C1473   1.412       .  A
C1473      C1474   1.413       .  A
C1473      C1476   1.451       .  S
C1474      C1478   1.450       .  S
C1475      N1482   1.156       .  T
C1476      N1483   1.156       .  T
C1477      N1481   1.157       .  T
C1478      N1484   1.157       .  T
C1479      N1488   1.156       .  T
C1480      N1486   1.156       .  T
C1489      C1490   1.410       .  A
C1489      C1494   1.415       .  A
C1489      C1507   1.451       .  S
C1490      C1495   1.500       .  S
C1490      C1491   1.409       .  A
C1491      C1492   1.410       .  A
C1491      C1496   1.453   1_455  S
C1492      C1493   1.421       .  A
C1492      C1508   1.452   1_455  S
C1493      C1494   1.418       .  A
C1494      C1497   1.450       .  S
C1495      C1498   1.412       .  A
C1495      C1502   1.412       .  A
C1496      N1513   1.155       .  T
C1497      N1515   1.155       .  T
C1498      C1499   1.410       .  A
C1498      C1503   1.452       .  S
C1499      C1500   1.414       .  A
C1499      C1505   1.452   1_455  S
C1500      C1501   1.414       .  A
C1501      C1502   1.413       .  A
C1501      C1504   1.452       .  S
C1502      C1506   1.450       .  S
C1503      N1510   1.156   1_455  T
C1504      N1511   1.157       .  T
C1505      N1509   1.157       .  T
C1506      N1512   1.156       .  T
C1507      N1516   1.157       .  T
C1508      N1514   1.158       .  T
C1517      C1518   1.410       .  A
C1517      C1522   1.412       .  A
C1517      C1535   1.451       .  S
C1518      C1523   1.496       .  S
C1518      C1519   1.411       .  A
C1519      C1520   1.410       .  A
C1519      C1524   1.452       .  S
C1520      C1521   1.415       .  A
C1520      C1536   1.453       .  S
C1521      C1522   1.415       .  A
C1522      C1525   1.451       .  S
C1523      C1526   1.409       .  A
C1523      C1530   1.410       .  A
C1524      N1541   1.157       .  T
C1525      N1543   1.157       .  T
C1526      C1527   1.406       .  A
C1526      C1531   1.453       .  S
C1527      C1528   1.418       .  A
C1527      C1533   1.454       .  S
C1528      C1529   1.418       .  A
C1529      C1530   1.415       .  A
C1529      C1532   1.450       .  S
C1530      C1534   1.451       .  S
C1531      N1538   1.156       .  T
C1532      N1539   1.157       .  T
C1533      N1537   1.156       .  T
C1534      N1540   1.156       .  T
C1535      N1544   1.156       .  T
C1536      N1542   1.156       .  T
C1545      C1546   1.414       .  A
C1545      C1550   1.413       .  A
C1545      C1563   1.450       .  S
C1546      C1551   1.500       .  S
C1546      C1547   1.412       .  A
C1547      C1548   1.409       .  A
C1547      C1552   1.451       .  S
C1548      C1549   1.411       .  A
C1548      C1564   1.451       .  S
C1549      C1550   1.411       .  A
C1550      C1553   1.451       .  S
C1551      C1554   1.409       .  A
C1551      C1558   1.410       .  A
C1552      N1569   1.156       .  T
C1553      N1571   1.156       .  T
C1554      C1555   1.410       .  A
C1554      C1559   1.454   1_554  S
C1555      C1556   1.424       .  A
C1555      C1561   1.453   1_554  S
C1556      C1557   1.421       .  A
C1557      C1558   1.414       .  A
C1557      C1560   1.451       .  S
C1558      C1562   1.451       .  S
C1559      N1566   1.156       .  T
C1560      N1567   1.156       .  T
C1561      N1565   1.157       .  T
C1562      N1568   1.157       .  T
C1563      N1572   1.156       .  T
C1564      N1570   1.156       .  T
C1573      C1574   1.412       .  A
C1573      C1578   1.412       .  A
C1573      C1591   1.453   1_556  S
C1574      C1579   1.501       .  S
C1574      C1575   1.411       .  A
C1575      C1576   1.411       .  A
C1575      C1580   1.451       .  S
C1576      C1577   1.414       .  A
C1576      C1592   1.450       .  S
C1577      C1578   1.419       .  A
C1578      C1581   1.453   1_556  S
C1579      C1582   1.409       .  A
C1579      C1586   1.409       .  A
C1580      N1597   1.156       .  T
C1581      N1599   1.157       .  T
C1582      C1583   1.414       .  A
C1582      C1587   1.451       .  S
C1583      C1584   1.424       .  A
C1583      C1589   1.451       .  S
C1584      C1585   1.423       .  A
C1585      C1586   1.411       .  A
C1585      C1588   1.451       .  S
C1586      C1590   1.453       .  S
C1587      N1594   1.157       .  T
C1588      N1595   1.157       .  T
C1589      N1593   1.156       .  T
C1590      N1596   1.156       .  T
C1591      N1600   1.156       .  T
C1592      N1598   1.156       .  T
C1601      C1602   1.413       .  A
C1601      C1606   1.416       .  A
C1601      C1619   1.450       .  S
C1602      C1607   1.502       .  S
C1602      C1603   1.412       .  A
C1603      C1604   1.410       .  A
C1603      C1608   1.453   1_455  S
C1604      C1605   1.415       .  A
C1604      C1620   1.453   1_455  S
C1605      C1606   1.414       .  A
C1606      C1609   1.449       .  S
C1607      C1610   1.412       .  A
C1607      C1614   1.411       .  A
C1608      N1625   1.156       .  T
C1609      N1627   1.156       .  T
C1610      C1611   1.409       .  A
C1610      C1615   1.451       .  S
C1611      C1612   1.416       .  A
C1611      C1617   1.453       .  S
C1612      C1613   1.418       .  A
C1613      C1614   1.415       .  A
C1613      C1616   1.450       .  S
C1614      C1618   1.451       .  S
C1615      N1622   1.157   1_455  T
C1616      N1623   1.157       .  T
C1617      N1621   1.156   1_455  T
C1618      N1624   1.156       .  T
C1619      N1628   1.157       .  T
C1620      N1626   1.157       .  T
C1629      C1630   1.408       .  A
C1629      C1634   1.412       .  A
C1629      C1647   1.451       .  S
C1630      C1635   1.494       .  S
C1630      C1631   1.408       .  A
C1631      C1632   1.409       .  A
C1631      C1636   1.453       .  S
C1632      C1633   1.423       .  A
C1632      C1648   1.453       .  S
C1633      C1634   1.421       .  A
C1634      C1637   1.452       .  S
C1635      C1638   1.410       .  A
C1635      C1642   1.410       .  A
C1636      N1653   1.157       .  T
C1637      N1655   1.157       .  T
C1638      C1639   1.408       .  A
C1638      C1643   1.453   1_565  S
C1639      C1640   1.414       .  A
C1639      C1645   1.452   1_565  S
C1640      C1641   1.413       .  A
C1641      C1642   1.412       .  A
C1641      C1644   1.450       .  S
C1642      C1646   1.450       .  S
C1643      N1650   1.156       .  T
C1644      N1651   1.156       .  T
C1645      N1649   1.156       .  T
C1646      N1652   1.156       .  T
C1647      N1656   1.156       .  T
C1648      N1654   1.157   1_565  T
C1657      C1658   1.410       .  A
C1657      C1662   1.411       .  A
C1657      C1675   1.453   1_545  S
C1658      C1663   1.504       .  S
C1658      C1659   1.411       .  A
C1659      C1660   1.417       .  A
C1659      C1664   1.451       .  S
C1660      C1661   1.421       .  A
C1660      C1676   1.450       .  S
C1661      C1662   1.423       .  A
C1662      C1665   1.455   1_545  S
C1663      C1666   1.414       .  A
C1663      C1670   1.412       .  A
C1664      N1681   1.156       .  T
C1665      N1683   1.156       .  T
C1666      C1667   1.415       .  A
C1666      C1671   1.450       .  S
C1667      C1668   1.412       .  A
C1667      C1673   1.449       .  S
C1668      C1669   1.415       .  A
C1669      C1670   1.412       .  A
C1669      C1672   1.452       .  S
C1670      C1674   1.451       .  S
C1671      N1678   1.156       .  T
C1672      N1679   1.156       .  T
C1673      N1677   1.156       .  T
C1674      N1680   1.156       .  T
C1675      N1684   1.157       .  T
C1676      N1682   1.157       .  T
C1685      C1686   1.411       .  A
C1685      C1690   1.412       .  A
C1685      C1703   1.452       .  S
C1686      C1691   1.500       .  S
C1686      C1687   1.412       .  A
C1687      C1688   1.412       .  A
C1687      C1692   1.452   1_655  S
C1688      C1689   1.416       .  A
C1688      C1704   1.454   1_655  S
C1689      C1690   1.414       .  A
C1690      C1693   1.450       .  S
C1691      C1694   1.410       .  A
C1691      C1698   1.409       .  A
C1692      N1709   1.157       .  T
C1693      N1711   1.157       .  T
C1694      C1695   1.414       .  A
C1694      C1699   1.452       .  S
C1695      C1696   1.420       .  A
C1695      C1701   1.451       .  S
C1696      C1697   1.423       .  A
C1697      C1698   1.410       .  A
C1697      C1700   1.453       .  S
C1698      C1702   1.452       .  S
C1699      N1706   1.156       .  T
C1700      N1707   1.156       .  T
C1701      N1705   1.157       .  T
C1702      N1708   1.157       .  T
C1703      N1712   1.155       .  T
C1704      N1710   1.156       .  T
