geometry optimzed in LAMMPS
_audit_creation_date              2020-11-30 
_audit_creation_method            'lammps2cif' 
_symmetry_space_group_name_H-M    'P1' 
_symmetry_Int_Tables_number       1 
_symmetry_cell_setting            triclinic 
loop_ 
_symmetry_equiv_pos_as_xyz 
  x,y,z 
_cell_length_a                    35.18433125 
_cell_length_b                    36.43414075869975 
_cell_length_c                    37.405488335658845 
_cell_angle_alpha                 90.21521527115084 
_cell_angle_beta                  87.79385324708886 
_cell_angle_gamma                 90.985313984623 
loop_ 
_atom_site_label 
_atom_site_type_symbol 
_atom_site_fract_x 
_atom_site_fract_y 
_atom_site_fract_z 
_atom_site_charge 
N1          N  0.22355187  0.87245194  0.00669205    -0.03500
C2          C  0.20807128  0.85443092  0.97858723    -0.00900
C3          C  0.18473016  0.82589432  0.99089362    -0.23800
C4          C  0.18581934  0.82611618  0.02742784    -0.24000
C5          C  0.20988715  0.85471050  0.03666965    -0.01000
H6          H  0.17094421  0.80515651  0.97487153     0.12800
H7          H  0.17317543  0.80550197  0.04518359     0.12800
N8          N  0.81228286  0.04680920  0.99735369    -0.03500
C9          C  0.82344129  0.06379339  0.02768995    -0.00900
C10         C  0.85565429  0.08518194  0.02096170    -0.23800
C11         C  0.86414751  0.08256437  0.98511927    -0.24000
C12         C  0.83674149  0.05968300  0.97092090    -0.01000
H13         H  0.86861772  0.10427206  0.03931422     0.12800
H14         H  0.88508382  0.09929519  0.97043833     0.12800
N15         N  0.95381421  0.95964479  0.32574931    -0.03500
C16         C  0.93480787  0.98902227  0.34022247    -0.00900
C17         C  0.90272238  0.97663645  0.35941379    -0.23800
C18         C  0.90175055  0.93919308  0.35686115    -0.24000
C19         C  0.93326412  0.92916705  0.33618093    -0.01000
H20         H  0.88041316  0.99316962  0.37150121     0.12800
H21         H  0.87883743  0.92139159  0.36685910     0.12800
N22         N  0.11612216  0.95468586  0.66162844    -0.03500
C23         C  0.13582606  0.98511621  0.65015034    -0.00900
C24         C  0.16576549  0.97553497  0.62719560    -0.23800
C25         C  0.16619941  0.93812649  0.62608588    -0.24000
C26         C  0.13626498  0.92587116  0.64819170    -0.01000
H27         H  0.18820646  0.99358568  0.61662784     0.12800
H28         H  0.18862665  0.92181792  0.61384977     0.12800
N29         N  0.06113202  0.71830972  0.06496282    -0.03500
C30         C  0.09750766  0.72762315  0.07273995    -0.00900
C31         C  0.09805077  0.75951293  0.09286049    -0.23800
C32         C  0.06107067  0.76942227  0.09902920    -0.24000
C33         C  0.03882394  0.74348505  0.08219614    -0.01000
H34         H  0.12230555  0.77122169  0.10606325     0.12800
H35         H  0.05146239  0.79085180  0.11715586     0.12800
N36         N  0.03553530  0.26826805  0.93792172    -0.03500
C37         C  0.00440924  0.28625063  0.92699621    -0.00900
C38         C  0.01607487  0.31570380  0.90574269    -0.23800
C39         C  0.05501917  0.31531085  0.90290371    -0.24000
C40         C  0.06646452  0.28526470  0.92184953    -0.01000
H41         H  0.99825671  0.33258459  0.88982981     0.12800
H42         H  0.07250006  0.33146972  0.88419510     0.12800
N43         N  0.75688346  0.89749203  0.99708997    -0.03500
C44         C  0.74308248  0.88437754  0.96593361    -0.00900
C45         C  0.71102951  0.86274468  0.97242822    -0.23800
C46         C  0.70491013  0.86164319  0.00862029    -0.24000
C47         C  0.73369018  0.88230661  0.02342126    -0.01000
H48         H  0.69681505  0.84554110  0.95322207     0.12800
H49         H  0.68521587  0.84308275  0.02267893     0.12800
N50         N  0.28352329  0.01975755  0.99906316    -0.03500
C51         C  0.30095537  0.03322088  0.96859780    -0.00900
C52         C  0.33046850  0.05691858  0.97681835    -0.23800
C53         C  0.33094069  0.05897457  0.01326935    -0.24000
C54         C  0.30173024  0.03647045  0.02634522    -0.01000
H55         H  0.34686456  0.07426192  0.95829608     0.12800
H56         H  0.34790217  0.07800508  0.02853303     0.12800
N57         N  0.95344610  0.96523546  0.66675215    -0.03500
C58         C  0.93017997  0.93782009  0.65498464    -0.00900
C59         C  0.90067777  0.95184908  0.63622765    -0.23800
C60         C  0.90487179  0.98901951  0.63711380    -0.24000
C61         C  0.93675685  0.99678432  0.65637906    -0.01000
H62         H  0.87653094  0.93685053  0.62607431     0.12800
H63         H  0.88417575  0.00844966  0.62850508     0.12800
N64         N  0.11023170  0.95370140  0.27906374    -0.03500
C65         C  0.12490780  0.92329690  0.26328590    -0.00900
C66         C  0.15153292  0.93289849  0.23668070    -0.23800
C67         C  0.15412083  0.97037199  0.23668802    -0.24000
C68         C  0.12889498  0.98248182  0.26319542    -0.01000
H69         H  0.17101308  0.91463571  0.22266659     0.12800
H70         H  0.17590099  0.98667177  0.22262152     0.12800
N71         N  0.03905019  0.65891792  0.92546851    -0.03500
C72         C  0.00693973  0.64411910  0.91150042    -0.00900
C73         C  0.01623556  0.61476372  0.88957817    -0.23800
C74         C  0.05498254  0.61205528  0.88872141    -0.24000
C75         C  0.06854483  0.63944399  0.91072737    -0.01000
H76         H  0.99735669  0.60029463  0.87196910     0.12800
H77         H  0.07150004  0.59463508  0.87079627     0.12800
N78         N  0.06194878  0.18715019  0.06513900    -0.03500
C79         C  0.03552006  0.16495256  0.08206349    -0.00900
C80         C  0.05290510  0.13494782  0.09635248    -0.23800
C81         C  0.09126006  0.13940167  0.08925371    -0.24000
C82         C  0.09634878  0.17199159  0.07067430    -0.01000
H83         H  0.03974656  0.11470634  0.11419395     0.12800
H84         H  0.11329153  0.12309709  0.10044573     0.12800
N85         N  0.46382074  0.46135318  0.77717170    -0.03500
C86         C  0.45154953  0.48932593  0.75709082    -0.00900
C87         C  0.43271880  0.47605903  0.72789942    -0.23800
C88         C  0.43269422  0.43861598  0.73035957    -0.24000
C89         C  0.45140666  0.43030851  0.76102596    -0.01000
H90         H  0.41636302  0.49185106  0.70966384     0.12800
H91         H  0.41621289  0.41977356  0.71443152     0.12800
N92         N  0.47454355  0.45807584  0.16298286    -0.03500
C93         C  0.45610929  0.43007196  0.14635597    -0.00900
C94         C  0.43133386  0.44353250  0.12204233    -0.23800
C95         C  0.43355935  0.48092522  0.12439317    -0.24000
C96         C  0.45893418  0.48935389  0.15065872    -0.01000
H97         H  0.41002866  0.42803438  0.10796246     0.12800
H98         H  0.41370159  0.49955544  0.11297884     0.12800
N99         N  0.31307465  0.37842146  0.49790434    -0.03500
C100        C  0.30400291  0.35642873  0.52655276    -0.00900
C101        C  0.29213573  0.32210688  0.51537182    -0.23800
C102        C  0.29406935  0.32240273  0.47886995    -0.24000
C103        C  0.30692344  0.35695150  0.46862356     0.02200
H104        H  0.28456454  0.29876619  0.53216512     0.12800
H105        H  0.28828255  0.29933249  0.46145772     0.12800
Zr106      Zr  0.23180827  0.16618871  0.78358117     2.17500
O107        O  0.16475724  0.15457206  0.79964078    -0.51300
O108        O  0.24431013  0.11909461  0.82872787    -0.74600
O109        O  0.20095351  0.11982024  0.74617650    -0.81300
O110        O  0.23178754  0.25198986  0.84480274    -0.83100
O111        O  0.23273899  0.11633090  0.69220504    -0.78700
O112        O  0.19692940  0.20230630  0.82819910    -0.90300
O113        O  0.30800143  0.11081854  0.82856307    -0.76300
O114        O  0.28435098  0.13518761  0.75607769    -0.85800
O115        O  0.28552601  0.18607865  0.81600734    -0.85500
O116        O  0.23479459  0.18641760  0.72212691    -0.72200
O117        O  0.23656057  0.23176150  0.77597364    -0.84400
Zr118      Zr  0.34776566  0.23794480  0.71854450     2.26400
Zr119      Zr  0.28844263  0.15549662  0.69488105     2.06300
Zr120      Zr  0.29102846  0.25119579  0.80777663     2.10000
Zr121      Zr  0.33801307  0.15518685  0.78829886     1.78800
O122        O  0.27084993  0.31366910  0.82046763    -0.93200
O123        O  0.36087777  0.09536377  0.76861968    -0.41000
O124        O  0.34407087  0.22017311  0.78050532    -0.77600
O125        O  0.34368018  0.17266971  0.72682337    -0.96300
O126        O  0.29365750  0.22036326  0.68651001    -0.89600
O127        O  0.29620001  0.27028417  0.74643144    -0.92500
C128        C  0.27401033  0.10321703  0.84001652     1.01300
C129        C  0.20151062  0.23160308  0.84689939     1.14200
C130        C  0.20529660  0.10733747  0.71409943     1.05000
O131        O  0.30571584  0.09206596  0.68328213    -0.94600
O132        O  0.34491139  0.15502823  0.65450082    -0.90400
O133        O  0.37777027  0.20717890  0.66714319    -0.83500
C134        C  0.37354243  0.17712394  0.64955769     1.11600
O135        O  0.17249558  0.25185023  0.71633456    -0.96600
Zr136      Zr  0.24186794  0.25158554  0.71502534     1.88900
O137        O  0.33654357  0.28675148  0.67517123    -0.73200
O138        O  0.26391988  0.16418505  0.63554104    -0.52500
O139        O  0.21716175  0.24168578  0.65572588    -0.97200
O140        O  0.21828245  0.31017732  0.73773184    -0.54400
O141        O  0.27317170  0.29668766  0.67599548    -0.73700
C142        C  0.30725888  0.30351271  0.66415029     0.98600
O143        O  0.41664629  0.24656241  0.71381738    -0.62600
O144        O  0.31508534  0.24264725  0.86737546    -0.57400
O145        O  0.38040981  0.28276962  0.75363022    -0.94100
O146        O  0.34692792  0.29242813  0.80598293    -0.92500
O147        O  0.36782983  0.16409937  0.84542600    -0.92800
O148        O  0.40734780  0.15838459  0.78523743    -0.91600
C149        C  0.37525686  0.29881598  0.78385902     1.17400
H150        H  0.28245861  0.18038774  0.84114737     0.33400
H151        H  0.36615238  0.16073616  0.71723328     0.44200
H152        H  0.30054478  0.29648005  0.74484419     0.37800
H153        H  0.21163870  0.17979631  0.71054400     0.34200
H154        H  0.37657228  0.08690379  0.78829554     0.26000
H155        H  0.28164397  0.18210907  0.62363815     0.32000
H156        H  0.20727070  0.26576582  0.64862976     0.37900
H157        H  0.36968783  0.19106832  0.84842828     0.32300
H158        H  0.33029473  0.26513779  0.87206626     0.31200
H159        H  0.28381299  0.32069709  0.84256831     0.32900
H160        H  0.24060140  0.32711074  0.73708216     0.31900
H161        H  0.41498090  0.14865013  0.76133214     0.35900
H162        H  0.42733401  0.22168183  0.71552983     0.28600
H163        H  0.16172381  0.12772431  0.80301817     0.32800
H164        H  0.16555958  0.27447291  0.70370890     0.35700
H165        H  0.29252598  0.24451808  0.88388317     0.28300
H166        H  0.42300897  0.25481111  0.68908224     0.41200
H167        H  0.32300696  0.08601152  0.70257700     0.31200
H168        H  0.33813663  0.07894901  0.76980351     0.38800
H169        H  0.21258455  0.30590186  0.76352566     0.30700
H170        H  0.26890817  0.14071285  0.62292896     0.30700
H171        H  0.15063985  0.16024264  0.77798289     0.31000
N172        N  0.82347511  0.39748680  0.50729780    -0.03500
C173        C  0.84393761  0.37685376  0.48317819    -0.00900
C174        C  0.86913485  0.35526534  0.50083303    -0.23800
C175        C  0.86324669  0.36166687  0.53663454    -0.24000
C176        C  0.83462108  0.38700708  0.54015389    -0.01000
H177        H  0.88668706  0.33384795  0.48923447     0.12800
H178        H  0.87504518  0.34595485  0.55794114     0.12800
N179        N  0.54910614  0.15726812  0.57618612    -0.03500
C180        C  0.58225918  0.14324760  0.58787954    -0.00900
C181        C  0.57410829  0.11301445  0.60928561    -0.23800
C182        C  0.53532866  0.10939283  0.61265651    -0.24000
C183        C  0.52050645  0.13729414  0.59288992    -0.01000
H184        H  0.59407147  0.09849156  0.62514449     0.12800
H185        H  0.51981552  0.09074774  0.63057240     0.12800
Zr186      Zr  0.85526448  0.18812966  0.77965206     2.17500
O187        O  0.92460798  0.19045618  0.77500176    -0.51300
O188        O  0.84302678  0.13674086  0.82019699    -0.74600
O189        O  0.88093928  0.21065225  0.83526394    -0.81300
O190        O  0.85892644  0.14262572  0.68822801    -0.83100
O191        O  0.84532900  0.25866314  0.85441262    -0.78700
O192        O  0.88484441  0.14096823  0.74308571    -0.90300
O193        O  0.77899403  0.13050495  0.82753558    -0.76300
O194        O  0.79978066  0.20233547  0.81483107    -0.85800
O195        O  0.80417522  0.15712169  0.75156434    -0.85500
O196        O  0.85108151  0.25366665  0.77768105    -0.72200
O197        O  0.85432791  0.21123158  0.71984473    -0.84400
Zr198      Zr  0.74202437  0.26123581  0.72383933     2.26400
Zr199      Zr  0.79439621  0.26737368  0.81209936     2.06300
Zr200      Zr  0.80236843  0.18075695  0.69199936     2.10000
Zr201      Zr  0.74891132  0.17188885  0.78651992     1.78800
O202        O  0.83019239  0.19227473  0.63239306    -0.93200
O203        O  0.71297734  0.17949036  0.84297092    -0.41000
O204        O  0.74625613  0.19544435  0.72683659    -0.77600
O205        O  0.74190792  0.23715056  0.78407101    -0.96300
O206        O  0.79282881  0.29214647  0.75256275    -0.89600
O207        O  0.79754120  0.24610257  0.68901963    -0.92500
C208        C  0.81304150  0.12184009  0.83502678     1.01300
C209        C  0.88279687  0.13049061  0.71040059     1.14200
C210        C  0.87358249  0.23687726  0.85733719     1.05000
O211        O  0.76339424  0.25831544  0.87077793    -0.94600
O212        O  0.73970815  0.30715648  0.81688916    -0.90400
O213        O  0.70988718  0.30452870  0.76408764    -0.83500
C214        C  0.71303788  0.31613792  0.79630201     1.11600
O215        O  0.91696189  0.28420432  0.72138398    -0.96600
Zr216      Zr  0.84836393  0.27647731  0.71806729     1.88900
O217        O  0.75734063  0.31058528  0.68041320    -0.73200
O218        O  0.82018987  0.32758416  0.82770125    -0.52500
O219        O  0.86850243  0.33503335  0.74327784    -0.97200
O220        O  0.88185535  0.26742006  0.66052215    -0.54400
O221        O  0.82078556  0.32225925  0.68114361    -0.73700
C222        C  0.78767802  0.32822737  0.66963212     0.98600
O223        O  0.67595432  0.27268928  0.71003982    -0.62600
O224        O  0.78402586  0.11736697  0.67926031    -0.57400
O225        O  0.70907849  0.22773465  0.67753031    -0.94100
O226        O  0.74606388  0.18231412  0.65473196    -0.92500
O227        O  0.73265175  0.11053844  0.76530383    -0.92800
O228        O  0.68047640  0.16445544  0.78115332    -0.91600
C229        C  0.71523482  0.20104868  0.65559438     1.17400
H230        H  0.80785442  0.13091797  0.75123531     0.33400
H231        H  0.71822942  0.24251349  0.79670031     0.44200
H232        H  0.79590876  0.25340025  0.66437413     0.37800
H233        H  0.87297218  0.26493650  0.78836088     0.34200
H234        H  0.70582787  0.15420209  0.85055066     0.26000
H235        H  0.82017320  0.32785672  0.85418097     0.32000
H236        H  0.87827706  0.34965217  0.72253140     0.37900
H237        H  0.72785012  0.09585162  0.78728793     0.32300
H238        H  0.75594480  0.11649340  0.68219029     0.31200
H239        H  0.82430151  0.16977852  0.61860660     0.32900
H240        H  0.86247421  0.27099152  0.64241259     0.31900
H241        H  0.67523793  0.17537993  0.75768775     0.35900
H242        H  0.66050785  0.26802025  0.73230616     0.28600
H243        H  0.93312653  0.17298204  0.79309794     0.32800
H244        H  0.92630408  0.25906216  0.72498932     0.35700
H245        H  0.78928337  0.11430023  0.65323373     0.28300
H246        H  0.67440074  0.29941849  0.70573105     0.41200
H247        H  0.77194078  0.27956177  0.88515986     0.31200
H248        H  0.73213393  0.18757877  0.86016030     0.38800
H249        H  0.88715383  0.24082185  0.65945948     0.30700
H250        H  0.84743105  0.32676181  0.82009208     0.30700
H251        H  0.93212708  0.21503706  0.78397025     0.31000
N252        N  0.34934558  0.53291766  0.49981208    -0.03500
C253        C  0.36760805  0.54983500  0.52713929    -0.00900
C254        C  0.39435221  0.57500858  0.51383804    -0.23800
C255        C  0.39244281  0.57437457  0.47747978    -0.24000
C256        C  0.36460380  0.54885257  0.46936624    -0.01000
H257        H  0.41020217  0.59495777  0.52909228     0.12800
H258        H  0.40656263  0.59363404  0.45918453     0.12800
Zr259      Zr  0.35068574  0.68873624  0.71387300     2.17500
O260        O  0.41986522  0.69336135  0.70695594    -0.51300
O261        O  0.34469186  0.63936467  0.66972606    -0.74600
O262        O  0.38153839  0.64094738  0.74515004    -0.81300
O263        O  0.34852523  0.77370729  0.65319614    -0.83100
O264        O  0.34494953  0.62563686  0.79421666    -0.78700
O265        O  0.38055836  0.72182951  0.66432937    -0.90300
O266        O  0.28202264  0.62724047  0.66279023    -0.76300
O267        O  0.29918383  0.65119171  0.73619502    -0.85800
O268        O  0.29843142  0.70438023  0.67930866    -0.85500
O269        O  0.34388757  0.70427204  0.77639729    -0.72200
O270        O  0.34274819  0.75301567  0.72480903    -0.84400
Zr271      Zr  0.22831218  0.74747896  0.77439761     2.26400
Zr272      Zr  0.29096251  0.66727678  0.79819266     2.06300
Zr273      Zr  0.28986060  0.76835539  0.69024180     2.10000
Zr274      Zr  0.24638226  0.66805296  0.70245329     1.78800
O275        O  0.30473037  0.83359717  0.68398336    -0.93200
O276        O  0.22178583  0.60755191  0.72003683    -0.41000
O277        O  0.23680805  0.73205292  0.71238008    -0.77600
O278        O  0.23672109  0.68291218  0.76458503    -0.96300
O279        O  0.28077044  0.73124105  0.80898125    -0.89600
O280        O  0.28011528  0.78496763  0.75209760    -0.92500
C281        C  0.31730353  0.62182126  0.65498364     1.01300
C282        C  0.37667261  0.75211145  0.64759983     1.14200
C283        C  0.37426965  0.62144052  0.77301197     1.05000
O284        O  0.26494161  0.60556565  0.80774209    -0.94600
O285        O  0.23668908  0.66762898  0.84122790    -0.90400
O286        O  0.20087764  0.71603688  0.82652809    -0.83500
C287        C  0.20751441  0.68821383  0.84603157     1.11600
O288        O  0.40066603  0.78133603  0.78204175    -0.96600
Zr289      Zr  0.33239687  0.76838313  0.78684103     1.88900
O290        O  0.23264009  0.79504323  0.82013779    -0.73200
O291        O  0.32021445  0.66902324  0.85613744    -0.52500
O292        O  0.36425416  0.75292311  0.84141853    -0.97200
O293        O  0.34894701  0.83240705  0.77414488    -0.54400
O294        O  0.29483884  0.80132208  0.83282387    -0.73700
C295        C  0.25940717  0.80792015  0.83929151     0.98600
O296        O  0.15891952  0.74564046  0.77461601    -0.62600
O297        O  0.27481156  0.76283490  0.62739714    -0.57400
O298        O  0.19372865  0.78989740  0.73809263    -0.94100
O299        O  0.22913819  0.79789257  0.68646176    -0.92500
O300        O  0.22163833  0.68348882  0.64454387    -0.92800
O301        O  0.17778209  0.65973724  0.69894176    -0.91600
C302        C  0.19906204  0.80276754  0.70632010     1.17400
H303        H  0.30349504  0.69974740  0.65414641     0.33400
H304        H  0.21444928  0.66956495  0.77357774     0.44200
H305        H  0.27436363  0.81066205  0.75464510     0.37800
H306        H  0.36658046  0.69778887  0.78847477     0.34200
H307        H  0.24449174  0.59189517  0.72033254     0.26000
H308        H  0.30474330  0.68641789  0.87066918     0.32000
H309        H  0.34436509  0.75454792  0.86077921     0.37900
H310        H  0.21520405  0.65961333  0.63338519     0.32300
H311        H  0.24932863  0.75089714  0.62758333     0.31200
H312        H  0.30239672  0.83864267  0.65817087     0.32900
H313        H  0.32644321  0.84657800  0.78224463     0.31900
H314        H  0.16704352  0.67290341  0.72010922     0.35900
H315        H  0.15092647  0.72024837  0.78107595     0.28600
H316        H  0.42818227  0.66949751  0.69689755     0.32800
H317        H  0.40607377  0.79876867  0.80165514     0.35700
H318        H  0.27048428  0.78828233  0.61954543     0.28300
H319        H  0.15037997  0.76101175  0.79515984     0.41200
H320        H  0.27953619  0.59552606  0.82748405     0.31200
H321        H  0.21363578  0.61001491  0.74554358     0.38800
H322        H  0.34941772  0.83410262  0.74772036     0.30700
H323        H  0.31411211  0.64468822  0.86680663     0.30700
H324        H  0.42934611  0.69409925  0.73153805     0.31000
N325        N  0.60934406  0.46149562  0.84039178    -0.03500
C326        C  0.61902809  0.48993486  0.86197139    -0.00900
C327        C  0.63016366  0.47672149  0.89450524    -0.23800
C328        C  0.63203408  0.43938629  0.89118603    -0.24000
C329        C  0.62084530  0.43070329  0.85703199    -0.01000
H330        H  0.64353987  0.49262382  0.91521057     0.12800
H331        H  0.64611377  0.42171656  0.90951330     0.12800
N332        N  0.54947302  0.76736375  0.56542931    -0.03500
C333        C  0.58336125  0.78162870  0.57609369    -0.00900
C334        C  0.57700829  0.81292002  0.59635597    -0.23800
C335        C  0.53850812  0.81654163  0.60071974    -0.24000
C336        C  0.52198758  0.78787573  0.58226489    -0.01000
H337        H  0.59783010  0.82770906  0.61170602     0.12800
H338        H  0.52435350  0.83571023  0.61870478     0.12800
N339        N  0.76981252  0.54501694  0.50104241    -0.03500
C340        C  0.76434995  0.56656059  0.47197452    -0.00900
C341        C  0.73851122  0.59362628  0.48050858    -0.23800
C342        C  0.72877233  0.58992591  0.51602233    -0.24000
C343        C  0.74890162  0.56063331  0.52838701    -0.01000
H344        H  0.73083915  0.61616534  0.46358932     0.12800
H345        H  0.71242595  0.60932778  0.53199371     0.12800
Zr346      Zr  0.72935417  0.66843442  0.72884948     2.17500
O347        O  0.66745053  0.63868600  0.72270884    -0.51300
O348        O  0.74732250  0.62214826  0.68448953    -0.74600
O349        O  0.69604605  0.69564200  0.67921952    -0.81300
O350        O  0.73269744  0.62364594  0.82130165    -0.83100
O351        O  0.73175514  0.74311284  0.65678930    -0.78700
O352        O  0.69816977  0.62560213  0.77115544    -0.90300
O353        O  0.81112079  0.62153657  0.67544258    -0.76300
O354        O  0.78338377  0.68791886  0.69335314    -0.85800
O355        O  0.78279814  0.64251950  0.75614085    -0.85500
O356        O  0.72810605  0.73444895  0.73173454    -0.72200
O357        O  0.72926990  0.69192190  0.78901610    -0.84400
Zr358      Zr  0.83810283  0.75326661  0.78301683     2.26400
Zr359      Zr  0.78366011  0.75352241  0.69696546     2.06300
Zr360      Zr  0.78459118  0.66774246  0.81555253     2.10000
Zr361      Zr  0.83661999  0.66227521  0.72072143     1.78800
O362        O  0.75781237  0.67981141  0.87536190    -0.93200
O363        O  0.87600095  0.67197694  0.66650418    -0.41000
O364        O  0.83875625  0.68732313  0.78002118    -0.77600
O365        O  0.83895641  0.72818961  0.72289626    -0.96300
O366        O  0.78434315  0.77891599  0.75623785    -0.89600
O367        O  0.78445844  0.73311444  0.81874826    -0.92500
C368        C  0.77747151  0.61086733  0.66774080     1.01300
C369        C  0.70497087  0.61307673  0.80228892     1.14200
C370        C  0.70230199  0.72176789  0.65655444     1.05000
O371        O  0.81006576  0.75005444  0.63587391    -0.94600
O372        O  0.83616200  0.79692843  0.68964018    -0.90400
O373        O  0.86896363  0.79600669  0.74060025    -0.83500
C374        C  0.86377528  0.80748472  0.70878998     1.11600
O375        O  0.66156825  0.75525588  0.78751454    -0.96600
Zr376      Zr  0.73049424  0.75759739  0.79123191     1.88900
O377        O  0.81914246  0.80075973  0.82676975    -0.73200
O378        O  0.75458078  0.81265964  0.68693734    -0.52500
O379        O  0.70492901  0.81441364  0.76868028    -0.97200
O380        O  0.69890885  0.74744586  0.84953746    -0.54400
O381        O  0.75492599  0.80581582  0.82836742    -0.73700
C382        C  0.78795459  0.81505599  0.83871960     0.98600
O383        O  0.89960434  0.77795052  0.80092628    -0.62600
O384        O  0.81005622  0.60884496  0.83273740    -0.57400
O385        O  0.87506880  0.72193520  0.82674237    -0.94100
O386        O  0.84145303  0.67400704  0.85104112    -0.92500
O387        O  0.85144892  0.59996566  0.73824746    -0.92800
O388        O  0.90399030  0.65848078  0.73290791    -0.91600
C389        C  0.87114894  0.69512330  0.84886982     1.17400
H390        H  0.78039870  0.61605881  0.75660198     0.33400
H391        H  0.86194638  0.73532092  0.70956926     0.44200
H392        H  0.78612605  0.74062560  0.84341706     0.37800
H393        H  0.70528071  0.74445094  0.72236993     0.34200
H394        H  0.88464090  0.64715122  0.65945231     0.26000
H395        H  0.76426877  0.82898288  0.70587338     0.32000
H396        H  0.72682102  0.83185404  0.76716301     0.37900
H397        H  0.85428997  0.60136725  0.76444349     0.32300
H398        H  0.79530782  0.60173256  0.85477682     0.31200
H399        H  0.75841676  0.65588044  0.88775030     0.32900
H400        H  0.71868985  0.75242103  0.86712729     0.31900
H401        H  0.90579381  0.66444418  0.75864581     0.35900
H402        H  0.91811284  0.77303284  0.78093325     0.28600
H403        H  0.66696808  0.63017364  0.69757177     0.32800
H404        H  0.65610966  0.73146188  0.77571860     0.35700
H405        H  0.80166549  0.59116397  0.81436759     0.28300
H406        H  0.89712063  0.80498635  0.80176167     0.41200
H407        H  0.79404453  0.76624373  0.62176256     0.31200
H408        H  0.85782827  0.67857578  0.64811222     0.38800
H409        H  0.69442501  0.72057101  0.85078984     0.30700
H410        H  0.76716441  0.82196466  0.66455211     0.30700
H411        H  0.64863138  0.65849699  0.72489308     0.31000
N412        N  0.52272162  0.22250327  0.43966122    -0.03500
C413        C  0.48703838  0.23454706  0.43331099    -0.00900
C414        C  0.48958529  0.26848041  0.41674305    -0.23800
C415        C  0.52731275  0.27620726  0.40996088    -0.24000
C416        C  0.54711934  0.24755094  0.42382364    -0.01000
H417        H  0.46649454  0.28283681  0.40491771     0.12800
H418        H  0.53864583  0.29816415  0.39309838     0.12800
Zr419      Zr  0.75741685  0.26688202  0.28796977     2.17500
O420        O  0.75273579  0.33301307  0.29767096    -0.51300
O421        O  0.70380500  0.25369116  0.33025654    -0.74600
O422        O  0.71038088  0.29581887  0.25151380    -0.81300
O423        O  0.83838090  0.26745867  0.35211768    -0.83100
O424        O  0.70642771  0.26501458  0.19885272    -0.78700
O425        O  0.78492269  0.29785443  0.33857701    -0.90300
O426        O  0.69910058  0.19214675  0.33692755    -0.76300
O427        O  0.72528760  0.21510219  0.26350750    -0.85800
O428        O  0.77764497  0.21601750  0.32191968    -0.85500
O429        O  0.77947625  0.26428442  0.22610064    -0.72200
O430        O  0.82562053  0.26502492  0.27954993    -0.84400
Zr431      Zr  0.83391264  0.15730201  0.22846383     2.26400
Zr432      Zr  0.74744456  0.21137294  0.20201390     2.06300
Zr433      Zr  0.84557999  0.21336811  0.31324710     2.10000
Zr434      Zr  0.74574302  0.16425847  0.29712069     1.78800
O435        O  0.90923724  0.24053474  0.31464302    -0.93200
O436        O  0.68486907  0.14017777  0.27757380    -0.41000
O437        O  0.81342354  0.16061747  0.29011009    -0.77600
O438        O  0.76591534  0.15927957  0.23565654    -0.96300
O439        O  0.81504912  0.20805603  0.19396778    -0.89600
O440        O  0.86697112  0.20893200  0.25196299    -0.92500
C441        C  0.68818650  0.22466106  0.34435157     1.01300
C442        C  0.81470020  0.29380141  0.35680313     1.14200
C443        C  0.69767748  0.29188610  0.21995740     1.05000
O444        O  0.68393255  0.18477494  0.19721350    -0.94600
O445        O  0.75793689  0.16052025  0.15916262    -0.90400
O446        O  0.80958953  0.12892387  0.17572632    -0.83500
C447        C  0.78198590  0.13426495  0.15514266     1.11600
O448        O  0.85001949  0.32649636  0.21583644    -0.96600
Zr449      Zr  0.84712944  0.25968158  0.21804982     1.88900
O450        O  0.88482837  0.16788913  0.18342098    -0.73200
O451        O  0.74963865  0.23335695  0.14052311    -0.52500
O452        O  0.83785566  0.28812401  0.16023502    -0.97200
O453        O  0.90851796  0.28117427  0.23871251    -0.54400
O454        O  0.89194932  0.22956211  0.17665373    -0.73700
C455        C  0.90070955  0.19634005  0.16866902     0.98600
O456        O  0.83204859  0.09027102  0.23180927    -0.62600
O457        O  0.84923834  0.19271861  0.37490897    -0.57400
O458        O  0.88438059  0.13045440  0.26115999    -0.94100
O459        O  0.88261009  0.15625990  0.31648125    -0.92500
O460        O  0.75400121  0.13568709  0.35497520    -0.92800
O461        O  0.74312967  0.09750582  0.29392553    -0.91600
C462        C  0.89383448  0.13130481  0.29391422     1.17400
H463        H  0.77083653  0.21895160  0.34699938     0.33400
H464        H  0.75453643  0.13716333  0.22621119     0.44200
H465        H  0.89418715  0.20594409  0.24978549     0.37800
H466        H  0.77279161  0.28631858  0.21375461     0.34200
H467        H  0.67389740  0.12633443  0.29835264     0.26000
H468        H  0.72270393  0.23516809  0.13408676     0.32000
H469        H  0.83860610  0.26762968  0.14277857     0.37900
H470        H  0.77755261  0.14715326  0.36387113     0.32300
H471        H  0.87348496  0.20328574  0.38320008     0.31200
H472        H  0.91975670  0.23128349  0.33699232     0.32900
H473        H  0.90244622  0.29904855  0.25801639     0.31900
H474        H  0.76932946  0.09039039  0.28671930     0.35900
H475        H  0.83309271  0.08419408  0.25753586     0.28600
H476        H  0.72601166  0.33729060  0.30566621     0.32800
H477        H  0.83724094  0.33446305  0.23853030     0.35700
H478        H  0.82923880  0.20622409  0.38855311     0.28300
H479        H  0.80576350  0.08302842  0.22596940     0.41200
H480        H  0.67804525  0.18795194  0.17174992     0.31200
H481        H  0.66852359  0.16191098  0.27594533     0.38800
H482        H  0.91974405  0.29613331  0.21880390     0.30700
H483        H  0.75890306  0.25910950  0.14203556     0.30700
H484        H  0.75569522  0.34452453  0.27376194     0.31000
N485        N  0.51947409  0.69581532  0.43140482    -0.03500
C486        C  0.48405488  0.68161070  0.42545657    -0.00900
C487        C  0.48685555  0.64816307  0.40809178    -0.23800
C488        C  0.52458216  0.64233133  0.40096362    -0.24000
C489        C  0.54411197  0.67214760  0.41461695    -0.01000
H490        H  0.46374270  0.63243127  0.39690408     0.12800
H491        H  0.53604400  0.62064122  0.38413676     0.12800
N492        N  0.63639620  0.45988393  0.17297856    -0.03500
C493        C  0.65718345  0.49116525  0.16610141    -0.00900
C494        C  0.69522053  0.48301836  0.16090297    -0.23800
C495        C  0.69807825  0.44575886  0.16377527    -0.24000
C496        C  0.66175442  0.43201705  0.17086946    -0.01000
H497        H  0.71871959  0.50240534  0.15739956     0.12800
H498        H  0.72415517  0.43039160  0.16247863     0.12800
Zr499      Zr  0.82550324  0.76924521  0.21255637     2.17500
O500        O  0.82702556  0.83617517  0.20830559    -0.51300
O501        O  0.87801139  0.75741383  0.16949230    -0.74600
O502        O  0.87644955  0.79690747  0.24660693    -0.81300
O503        O  0.74112438  0.77129325  0.15175894    -0.83100
O504        O  0.88342375  0.76410015  0.29733569    -0.78700
O505        O  0.79846167  0.79882449  0.16150674    -0.90300
O506        O  0.87831171  0.69641386  0.15782751    -0.76300
O507        O  0.85745628  0.71678303  0.23327564    -0.85800
O508        O  0.80187820  0.71941521  0.17790165    -0.85500
O509        O  0.80798912  0.76437703  0.27529133    -0.72200
O510        O  0.75763949  0.76694240  0.22390943    -0.84400
Zr511      Zr  0.74877027  0.65855567  0.27235202     2.26400
Zr512      Zr  0.83966168  0.71075190  0.29559041     2.06300
Zr513      Zr  0.73438798  0.71620020  0.18960806     2.10000
Zr514      Zr  0.83324849  0.66700291  0.19910368     1.78800
O515        O  0.66913937  0.73753128  0.19045603    -0.93200
O516        O  0.89589987  0.64341034  0.21111744    -0.41000
O517        O  0.76580087  0.66275539  0.20978326    -0.77600
O518        O  0.81645376  0.66011478  0.26132156    -0.96300
O519        O  0.77226615  0.70806449  0.30703504    -0.89600
O520        O  0.71656849  0.71096590  0.25186055    -0.92500
C521        C  0.89137301  0.72910409  0.15297883     1.01300
C522        C  0.76714403  0.79600173  0.14511198     1.14200
C523        C  0.89142808  0.79191994  0.27694529     1.05000
O524        O  0.90096326  0.68068317  0.29374060    -0.94600
O525        O  0.82965525  0.65912267  0.33804347    -0.90400
O526        O  0.77513981  0.62930932  0.32339141    -0.83500
C527        C  0.80418144  0.63340484  0.34280258     1.11600
O528        O  0.74925411  0.82695254  0.28920373    -0.96600
Zr529      Zr  0.74070365  0.76045593  0.28637704     1.88900
O530        O  0.69963536  0.66861591  0.31880337    -0.73200
O531        O  0.84604954  0.73362015  0.35640372    -0.52500
O532        O  0.75129628  0.78000802  0.34756819    -0.97200
O533        O  0.68157050  0.78987639  0.27181136    -0.54400
O534        O  0.69510613  0.72998369  0.32731649    -0.73700
C535        C  0.68509086  0.69669848  0.33465674     0.98600
O536        O  0.74787694  0.59159461  0.27220373    -0.62600
O537        O  0.72914355  0.69711048  0.12737776    -0.57400
O538        O  0.69574140  0.63241798  0.24086719    -0.94100
O539        O  0.69600195  0.65922334  0.18630974    -0.92500
O540        O  0.81920994  0.64151659  0.14074033    -0.92800
O541        O  0.83459117  0.60025206  0.20090429    -0.91600
C542        C  0.68487108  0.63394525  0.20863115     1.17400
H543        H  0.80759874  0.72314308  0.15269868     0.33400
H544        H  0.82729304  0.63759738  0.26951790     0.44200
H545        H  0.68928703  0.70815892  0.25535740     0.37800
H546        H  0.81647668  0.78591302  0.28792403     0.34200
H547        H  0.91304380  0.66524215  0.21132437     0.26000
H548        H  0.82163953  0.72699355  0.36900020     0.32000
H549        H  0.77908769  0.77813444  0.35010788     0.37900
H550        H  0.79156220  0.63591116  0.14221059     0.32300
H551        H  0.70916728  0.71270537  0.11777617     0.31200
H552        H  0.66160136  0.73567198  0.16527608     0.32900
H553        H  0.66120462  0.77188731  0.27868669     0.31900
H554        H  0.81414679  0.59316845  0.21858670     0.35900
H555        H  0.72332017  0.58412164  0.28403162     0.28600
H556        H  0.85050243  0.84248406  0.19410157     0.32800
H557        H  0.73132587  0.83533563  0.30846170     0.35700
H558        H  0.75301549  0.70577767  0.11505646     0.28300
H559        H  0.74586324  0.58397769  0.24690607     0.41200
H560        H  0.91855648  0.69843310  0.30490311     0.31200
H561        H  0.89398022  0.63535285  0.23637354     0.38800
H562        H  0.68191477  0.79018118  0.24533652     0.30700
H563        H  0.86495300  0.71751665  0.36704493     0.30700
H564        H  0.83126877  0.84583380  0.23265801     0.31000
Zr565      Zr  0.22874785  0.72849961  0.22213170     2.17500
O566        O  0.16018703  0.71940603  0.21839783    -0.51300
O567        O  0.23501539  0.77910907  0.18000028    -0.74600
O568        O  0.19573686  0.77580663  0.25524667    -0.81300
O569        O  0.24856766  0.66142707  0.14490641    -0.83100
O570        O  0.22549747  0.78790763  0.30675956    -0.78700
O571        O  0.20604627  0.70253316  0.16797545    -0.90300
O572        O  0.29729203  0.79583130  0.17468170    -0.76300
O573        O  0.27488081  0.76644708  0.24944742    -0.85800
O574        O  0.28572344  0.71957371  0.18728440    -0.85500
O575        O  0.22925905  0.70691622  0.28262908    -0.72200
O576        O  0.24021367  0.66391023  0.22416121    -0.84400
Zr577      Zr  0.34722977  0.67007224  0.27729711     2.26400
Zr578      Zr  0.27759603  0.74397361  0.30941121     2.06300
Zr579      Zr  0.29812183  0.65555923  0.18956943     2.10000
Zr580      Zr  0.33195717  0.75695721  0.21501505     1.78800
O581        O  0.27589205  0.59377808  0.17505894    -0.93200
O582        O  0.34379025  0.81742189  0.24079020    -0.41000
O583        O  0.34602861  0.69254185  0.21698480    -0.77600
O584        O  0.33603795  0.73509148  0.27519075    -0.96300
O585        O  0.29024371  0.67981274  0.31179883    -0.89600
O586        O  0.30055216  0.63293363  0.24958180    -0.92500
C587        C  0.26249016  0.79845746  0.16586174     1.01300
C588        C  0.21762899  0.67987263  0.14393741     1.14200
C589        C  0.19931330  0.79384067  0.28443469     1.05000
O590        O  0.30057169  0.80318436  0.33095371    -0.94600
O591        O  0.32621730  0.73801178  0.35439996    -0.90400
O592        O  0.36505179  0.69204672  0.33487305    -0.83500
C593        C  0.35489524  0.71687043  0.35734572     1.11600
O594        O  0.17809524  0.62784973  0.26996650    -0.96600
Zr595      Zr  0.24359409  0.64262207  0.28454226     1.88900
O596        O  0.33998892  0.61975233  0.32012719    -0.73200
O597        O  0.23757268  0.73199117  0.36277355    -0.52500
O598        O  0.20167968  0.64671739  0.33773048    -0.97200
O599        O  0.23713438  0.57738938  0.27053214    -0.54400
O600        O  0.27670131  0.61116881  0.33135859    -0.73700
C601        C  0.31161283  0.60570078  0.33833246     0.98600
O602        O  0.41567072  0.68124796  0.28041657    -0.62600
O603        O  0.33149176  0.66489930  0.13192750    -0.57400
O604        O  0.38338524  0.62441860  0.24369475    -0.94100
O605        O  0.35589554  0.61882243  0.18971437    -0.92500
O606        O  0.36627596  0.76007254  0.15732874    -0.92800
O607        O  0.40037527  0.76731648  0.21751760    -0.91600
C608        C  0.38142956  0.61090131  0.21207322     1.17400
H609        H  0.28315129  0.72655051  0.16260915     0.33400
H610        H  0.35647635  0.74828902  0.28635008     0.44200
H611        H  0.30744794  0.60735854  0.24977006     0.37800
H612        H  0.20489619  0.71107358  0.29457368     0.34200
H613        H  0.35380843  0.83245281  0.22042125     0.26000
H614        H  0.24531220  0.70751454  0.37095914     0.32000
H615        H  0.19861688  0.62111720  0.34629771     0.37900
H616        H  0.35774381  0.73791447  0.14430680     0.32300
H617        H  0.35871166  0.66750039  0.13745467     0.31200
H618        H  0.29873667  0.58074041  0.16589694     0.32900
H619        H  0.26002833  0.56574330  0.27968822     0.31900
H620        H  0.40918488  0.74762070  0.23318359     0.35900
H621        H  0.42505294  0.68333798  0.25520526     0.28600
H622        H  0.15090551  0.74234473  0.20789814     0.32800
H623        H  0.17006038  0.60704160  0.28560988     0.35700
H624        H  0.32949773  0.64089728  0.11959208     0.28300
H625        H  0.41854329  0.70648541  0.28999643     0.41200
H626        H  0.28242365  0.80981487  0.35072625     0.31200
H627        H  0.31825760  0.82738761  0.24648991     0.38800
H628        H  0.24056218  0.57594525  0.24418111     0.30700
H629        H  0.24720849  0.74927241  0.38094162     0.30700
H630        H  0.15002763  0.71946886  0.24344768     0.31000
Zr631      Zr  0.35268842  0.24362988  0.27246788     2.17500
O632        O  0.42159680  0.24110782  0.27736564    -0.51300
O633        O  0.34124301  0.29423013  0.31474001    -0.74600
O634        O  0.38554105  0.29078610  0.23671691    -0.81300
O635        O  0.33692883  0.17308265  0.34838157    -0.83100
O636        O  0.35688874  0.29264567  0.18322080    -0.78700
O637        O  0.37641314  0.21885419  0.32691938    -0.90300
O638        O  0.27761993  0.30258730  0.31800034    -0.76300
O639        O  0.30446613  0.27476876  0.24211576    -0.85800
O640        O  0.29543666  0.22952482  0.30586670    -0.85500
O641        O  0.35333776  0.21909092  0.21257025    -0.72200
O642        O  0.34564390  0.17791470  0.27148008    -0.84400
Zr643      Zr  0.23896016  0.17140646  0.21491378     2.26400
Zr644      Zr  0.30341748  0.24940041  0.18270139     2.06300
Zr645      Zr  0.28725744  0.16429408  0.30425161     2.10000
Zr646      Zr  0.24754771  0.26108116  0.27584302     1.78800
O647        O  0.31174176  0.10443793  0.31937229    -0.93200
O648        O  0.23559969  0.32172874  0.25190704    -0.41000
O649        O  0.23811728  0.19570214  0.27464063    -0.77600
O650        O  0.24524989  0.23709491  0.21613641    -0.96300
O651        O  0.29617362  0.18429345  0.18141040    -0.89600
O652        O  0.28695789  0.13959125  0.24473987    -0.92500
C653        C  0.31137088  0.30990315  0.32814996     1.01300
C654        C  0.36657014  0.19424779  0.35005379     1.14200
C655        C  0.38242244  0.30318534  0.20489181     1.05000
O656        O  0.27894496  0.30775000  0.16303477    -0.94600
O657        O  0.25524413  0.23836946  0.13693090    -0.90400
O658        O  0.21687805  0.19200900  0.15852711    -0.83500
C659        C  0.22653196  0.21595235  0.13486079     1.11600
O660        O  0.41323087  0.15142034  0.21597100    -0.96600
Zr661      Zr  0.34436013  0.15374648  0.21192354     1.88900
O662        O  0.25069943  0.12078618  0.17298226    -0.73200
O663        O  0.34161767  0.24045366  0.12773025    -0.52500
O664        O  0.38220332  0.15245506  0.15610460    -0.97200
O665        O  0.35554572  0.09430379  0.23917029    -0.54400
O666        O  0.31453691  0.11260212  0.16996300    -0.73700
C667        C  0.28075142  0.10512591  0.16011579     0.98600
O668        O  0.16964066  0.16992581  0.21320355    -0.62600
O669        O  0.25224310  0.17274168  0.36107575    -0.57400
O670        O  0.20443297  0.12675203  0.25096718    -0.94100
O671        O  0.23192145  0.12220358  0.30476957    -0.92500
O672        O  0.20640891  0.25410766  0.32931571    -0.92800
O673        O  0.18020334  0.27118717  0.26780233    -0.91600
C674        C  0.20647143  0.11309663  0.28231842     1.17400
H675        H  0.29679557  0.23712242  0.33052710     0.33400
H676        H  0.22425988  0.24812654  0.20453093     0.44200
H677        H  0.28184748  0.11343481  0.24494569     0.37800
H678        H  0.37757892  0.22472204  0.20071161     0.34200
H679        H  0.22159946  0.33468901  0.27148629     0.26000
H680        H  0.33879152  0.26345042  0.11414397     0.32000
H681        H  0.37580756  0.17535365  0.14373257     0.37900
H682        H  0.22382669  0.25524106  0.34946628     0.32300
H683        H  0.25819813  0.15086456  0.37530032     0.31200
H684        H  0.29483325  0.09560888  0.33940990     0.32900
H685        H  0.38330591  0.09054975  0.23685682     0.31900
H686        H  0.16948157  0.24648712  0.26274524     0.35900
H687        H  0.16232935  0.19497579  0.20629451     0.28600
H688        H  0.42971697  0.26587518  0.28534478     0.32800
H689        H  0.41852819  0.16324929  0.23916600     0.35700
H690        H  0.26545410  0.19332069  0.37305698     0.28300
H691        H  0.16350462  0.15418025  0.19248814     0.41200
H692        H  0.26761855  0.31904962  0.18494694     0.31200
H693        H  0.26082375  0.33422521  0.25041952     0.38800
H694        H  0.34460995  0.07594356  0.22272634     0.30700
H695        H  0.36837153  0.24121302  0.13504897     0.30700
H696        H  0.43209672  0.23877767  0.25253048     0.31000
C697        C  0.63524737  0.54041950  0.20704745    -0.26300
C698        C  0.64519323  0.52970007  0.17198935    -0.14400
C699        C  0.65667188  0.55723112  0.14704846     0.36200
C700        C  0.66454495  0.59301675  0.15894566    -0.25800
C701        C  0.66177884  0.60199376  0.19555381    -0.15000
C702        C  0.64328883  0.57612232  0.21915282     0.37300
N703        N  0.63348354  0.58454153  0.25578221    -0.89300
H704        H  0.62569097  0.51994047  0.22642804     0.18400
H705        H  0.67663345  0.61265697  0.13983304     0.18400
N706        N  0.66272338  0.54905592  0.10978032    -0.88300
H707        H  0.61889782  0.60929786  0.25681433     0.35800
H708        H  0.65800756  0.58693541  0.27043547     0.40900
H709        H  0.63748533  0.53775660  0.10035613     0.40500
H710        H  0.68402266  0.52960648  0.10655608     0.35400
C711        C  0.41611020  0.73906670  0.37533742    -0.26300
C712        C  0.38152337  0.72230315  0.38625240    -0.14400
C713        C  0.38036304  0.69887558  0.41636660     0.36200
C714        C  0.41448463  0.69039142  0.43268477    -0.25800
C715        C  0.44982089  0.70334513  0.41853901    -0.15000
C716        C  0.45024896  0.72833409  0.38952574     0.37300
N717        N  0.48473640  0.73952372  0.37068894    -0.89300
H718        H  0.41740638  0.75592563  0.35144717     0.18400
H719        H  0.41376773  0.67022765  0.45395088     0.18400
N720        N  0.34587119  0.68044069  0.42867452    -0.88300
H721        H  0.49908088  0.71624154  0.36149581     0.35800
H722        H  0.50193428  0.75403859  0.38799497     0.40900
H723        H  0.32267387  0.68937510  0.41463368     0.40500
H724        H  0.34058707  0.68817835  0.45531999     0.35400
C725        C  0.60889205  0.65069892  0.39566303    -0.26300
C726        C  0.58466696  0.68027347  0.40344741    -0.14400
C727        C  0.59742910  0.71593453  0.39383806     0.36200
C728        C  0.63161995  0.72081456  0.37363407    -0.25800
C729        C  0.65350640  0.69072580  0.36207005    -0.15000
C730        C  0.64290330  0.65548713  0.37512741     0.37300
N731        N  0.66591209  0.62424574  0.36700218    -0.89300
H732        H  0.60039555  0.62318592  0.40390661     0.18400
H733        H  0.63964985  0.74834619  0.36510412     0.18400
N734        N  0.57483524  0.74725374  0.40234146    -0.88300
H735        H  0.64938499  0.60495817  0.35348378     0.35800
H736        H  0.67357534  0.61256317  0.39112564     0.40900
H737        H  0.56934364  0.76064806  0.37846401     0.40500
H738        H  0.59092465  0.76515227  0.41787147     0.35400
C739        C  0.67851076  0.33075006  0.16910968    -0.26300
C740        C  0.67514887  0.32272737  0.20581817    -0.14400
C741        C  0.65676312  0.34841169  0.22883078     0.36200
C742        C  0.64683237  0.38307611  0.21569511    -0.25800
C743        C  0.65519294  0.39269131  0.17994741    -0.15000
C744        C  0.66932393  0.36555707  0.15622867     0.37300
N745        N  0.67734929  0.37436159  0.11939813    -0.89300
H746        H  0.69197362  0.31143445  0.15074486     0.18400
H747        H  0.63614911  0.40368188  0.23429642     0.18400
N748        N  0.64978592  0.34012170  0.26592333    -0.88300
H749        H  0.66199203  0.35593612  0.10378063     0.35800
H750        H  0.70632147  0.37030788  0.11378055     0.40900
H751        H  0.62057930  0.34220581  0.27162156     0.40500
H752        H  0.66374258  0.36004791  0.28101895     0.35400
C753        C  0.59654588  0.20505807  0.40028972    -0.26300
C754        C  0.58741870  0.24028521  0.41265094    -0.14400
C755        C  0.61455482  0.26911471  0.40728619     0.36200
C756        C  0.64727667  0.26325877  0.38549558    -0.25800
C757        C  0.65504506  0.22865085  0.37040919    -0.15000
C758        C  0.63024165  0.19865800  0.37986319     0.37300
N759        N  0.63819875  0.16203317  0.36755255    -0.89300
H760        H  0.57628766  0.18267912  0.40487639     0.18400
H761        H  0.66677947  0.28614183  0.38035670     0.18400
N762        N  0.61012633  0.30447999  0.42391212    -0.88300
H763        H  0.61581198  0.14395819  0.37471876     0.35800
H764        H  0.66169088  0.15305430  0.38119414     0.40900
H765        H  0.58751568  0.30444099  0.44282753     0.40500
H766        H  0.60436263  0.32339884  0.40397659     0.35400
C767        C  0.42962278  0.17854698  0.37040933    -0.26300
C768        C  0.39294546  0.19060030  0.37961635    -0.14400
C769        C  0.38649168  0.20905138  0.41248614     0.36200
C770        C  0.41779432  0.21863025  0.43345339    -0.25800
C771        C  0.45522464  0.21033116  0.42186694    -0.15000
C772        C  0.46074018  0.18862567  0.39080798     0.37300
N773        N  0.49839555  0.18067961  0.37736813    -0.89300
H774        H  0.43486059  0.16480333  0.34497484     0.18400
H775        H  0.41341195  0.23590882  0.45684276     0.18400
N776        N  0.34873868  0.22026221  0.42314086    -0.88300
H777        H  0.50235106  0.19285273  0.35220066     0.35800
H778        H  0.50026564  0.15227241  0.37393299     0.40900
H779        H  0.34035347  0.23998918  0.40494697     0.40500
H780        H  0.34875685  0.23308807  0.44819622     0.35400
C781        C  0.79442784  0.56285515  0.57756648    -0.26300
C782        C  0.75678794  0.55811308  0.56708685    -0.14400
C783        C  0.72690488  0.56223008  0.59294977     0.36200
C784        C  0.73482154  0.57643504  0.62687609    -0.25800
C785        C  0.77213016  0.58628572  0.63593674    -0.15000
C786        C  0.80251760  0.57646155  0.61191078     0.37300
N787        N  0.84133793  0.58212520  0.62150764    -0.89300
H788        H  0.81748996  0.55920395  0.55789485     0.18400
H789        H  0.71122546  0.58200168  0.64544231     0.18400
N790        N  0.68823899  0.55474568  0.58368269    -0.88300
H791        H  0.86001636  0.57427497  0.60055066     0.35800
H792        H  0.84618832  0.56455235  0.64283465     0.40900
H793        H  0.66945020  0.56089850  0.60512361     0.40500
H794        H  0.68541525  0.52653186  0.57942400     0.35400
C795        C  0.77623155  0.55646444  0.40730216    -0.26300
C796        C  0.78934126  0.57084960  0.43932547    -0.14400
C797        C  0.81622920  0.60032227  0.43759615     0.36200
C798        C  0.82425806  0.61851477  0.40498809    -0.25800
C799        C  0.80624096  0.60753261  0.37372660    -0.15000
C800        C  0.78497247  0.57407455  0.37454151     0.37300
N801        N  0.77049786  0.55877707  0.34237942    -0.89300
H802        H  0.75610094  0.53360256  0.40804050     0.18400
H803        H  0.84194306  0.64316048  0.40491365     0.18400
N804        N  0.83346112  0.61406898  0.46917332    -0.88300
H805        H  0.74087506  0.55673196  0.34548817     0.35800
H806        H  0.78104044  0.53225370  0.33928508     0.40900
H807        H  0.84746128  0.59239124  0.48095154     0.40500
H808        H  0.81222903  0.62309048  0.48724744     0.35400
C809        C  0.51989923  0.76599205  0.50669999    -0.26300
C810        C  0.54453814  0.75008263  0.53073572    -0.14400
C811        C  0.56213003  0.71688992  0.52059284     0.36200
C812        C  0.55450361  0.70051646  0.48744312    -0.25800
C813        C  0.52880650  0.71584160  0.46384939    -0.15000
C814        C  0.51147049  0.74918798  0.47405031     0.37300
N815        N  0.48531035  0.76659763  0.45165934    -0.89300
H816        H  0.50639217  0.79169081  0.51357926     0.18400
H817        H  0.56763660  0.67456378  0.48087134     0.18400
N818        N  0.58581436  0.69825433  0.54453294    -0.88300
H819        H  0.49580543  0.79298069  0.44568788     0.35800
H820        H  0.45943949  0.76918195  0.46609980     0.40900
H821        H  0.61241790  0.69468308  0.53167698     0.40500
H822        H  0.57378408  0.67229306  0.54976519     0.35400
C823        C  0.60673234  0.73128348  0.61253135    -0.26300
C824        C  0.61523420  0.75879165  0.58730695    -0.14400
C825        C  0.65329973  0.77045592  0.58154117     0.36200
C826        C  0.68178015  0.75552011  0.60238406    -0.25800
C827        C  0.67281039  0.72998364  0.62991802    -0.15000
C828        C  0.63458783  0.71686642  0.63370494     0.37300
N829        N  0.62210733  0.69083756  0.66031485    -0.89300
H830        H  0.57741372  0.72300495  0.61805403     0.18400
H831        H  0.71075877  0.76565946  0.59848105     0.18400
N832        N  0.66235341  0.79929190  0.55637107    -0.88300
H833        H  0.62695645  0.70188951  0.68556775     0.35800
H834        H  0.63711116  0.66662820  0.65611945     0.40900
H835        H  0.65584417  0.78951875  0.53097979     0.40500
H836        H  0.69154533  0.80527655  0.55560108     0.35400
C837        C  0.62071111  0.55288865  0.83473546    -0.26300
C838        C  0.64001682  0.52221244  0.84681055    -0.14400
C839        C  0.68008552  0.52143458  0.84288335     0.36200
C840        C  0.70017199  0.55175274  0.82886580    -0.25800
C841        C  0.68118513  0.58247937  0.81679910    -0.15000
C842        C  0.64092042  0.58284957  0.81925427     0.37300
N843        N  0.61999534  0.61339442  0.80700632    -0.89300
H844        H  0.58992414  0.55331841  0.83692464     0.18400
H845        H  0.73096740  0.55085038  0.82654925     0.18400
N846        N  0.70051625  0.48942968  0.85241770    -0.88300
H847        H  0.62542013  0.61620331  0.77951102     0.35800
H848        H  0.62970861  0.63711747  0.81981957     0.40900
H849        H  0.71568501  0.48015781  0.82964885     0.40500
H850        H  0.72007913  0.49702436  0.87156497     0.35400
C851        C  0.43200657  0.73373834  0.60925518    -0.26300
C852        C  0.40827088  0.76207412  0.62151020    -0.14400
C853        C  0.41874686  0.79862905  0.61271995     0.36200
C854        C  0.45474193  0.80586879  0.59596916    -0.25800
C855        C  0.48069780  0.77754222  0.58801694    -0.15000
C856        C  0.46777521  0.74076004  0.59323578     0.37300
N857        N  0.49058434  0.70950715  0.58514420    -0.89300
H858        H  0.42378668  0.70534893  0.61427446     0.18400
H859        H  0.46353037  0.83411959  0.59115350     0.18400
N860        N  0.39419905  0.82838039  0.62273165    -0.88300
H861        H  0.51664319  0.71216338  0.59733792     0.35800
H862        H  0.49405444  0.70689840  0.55748517     0.40900
H863        H  0.36993708  0.82584123  0.60756654     0.40500
H864        H  0.40700335  0.85359349  0.61575446     0.35400
C865        C  0.35381195  0.56316120  0.37047322    -0.26300
C866        C  0.32008816  0.58339242  0.37047621    -0.14400
C867        C  0.29795244  0.58590674  0.40291681     0.36200
C868        C  0.31105289  0.57052766  0.43433813    -0.25800
C869        C  0.34563234  0.55199085  0.43469556    -0.15000
C870        C  0.36680674  0.54760808  0.40219107     0.37300
N871        N  0.40287982  0.52969834  0.40213850    -0.89300
H872        H  0.37107661  0.56099436  0.34596358     0.18400
H873        H  0.29596449  0.57676476  0.45927605     0.18400
N874        N  0.26369663  0.60657321  0.40574468    -0.88300
H875        H  0.41546304  0.52934706  0.37636126     0.35800
H876        H  0.39768110  0.50233946  0.40941412     0.40900
H877        H  0.24373721  0.59453618  0.38916980     0.40500
H878        H  0.26964089  0.63351731  0.39748404     0.35400
C879        C  0.31395376  0.56522872  0.56890590    -0.26300
C880        C  0.35187001  0.55438680  0.56441810    -0.14400
C881        C  0.37642515  0.55984150  0.59325988     0.36200
C882        C  0.36400281  0.58033601  0.62330261    -0.25800
C883        C  0.32715266  0.59472456  0.62602558    -0.15000
C884        C  0.30140025  0.58528781  0.59915380     0.37300
N885        N  0.26320112  0.59834440  0.60086715    -0.89300
H886        H  0.29483109  0.56175683  0.54720332     0.18400
H887        H  0.38390067  0.58609320  0.64409423     0.18400
N888        N  0.41479253  0.54677040  0.59199210    -0.88300
H889        H  0.24470197  0.57563547  0.59978641     0.35800
H890        H  0.25927688  0.61448082  0.57828644     0.40900
H891        H  0.41987180  0.53042983  0.56936195     0.40500
H892        H  0.41748705  0.52937577  0.61388740     0.35400
C893        C  0.67209744  0.36999504  0.78827126    -0.26300
C894        C  0.68398229  0.34185411  0.81042600    -0.14400
C895        C  0.66802231  0.33922909  0.84562252     0.36200
C896        C  0.64306041  0.36611257  0.85849990    -0.25800
C897        C  0.63519407  0.39715858  0.83797700    -0.15000
C898        C  0.64848986  0.39787138  0.80175880     0.37300
N899        N  0.64014352  0.42765544  0.77884926    -0.89300
H900        H  0.68315207  0.37175378  0.76085741     0.18400
H901        H  0.63197180  0.36396611  0.88584227     0.18400
N902        N  0.67693094  0.30994768  0.86916401    -0.88300
H903        H  0.62649813  0.41697662  0.75664512     0.35800
H904        H  0.66585231  0.43987494  0.76983551     0.40900
H905        H  0.70568669  0.31196794  0.87493826     0.40500
H906        H  0.67171598  0.28494739  0.85628843     0.35400
C907        C  0.52310641  0.15416498  0.51568536    -0.26300
C908        C  0.54490615  0.17313127  0.54094867    -0.14400
C909        C  0.56117204  0.20734178  0.53117516     0.36200
C910        C  0.55442091  0.22237005  0.49751446    -0.25800
C911        C  0.53185695  0.20391916  0.47252845    -0.15000
C912        C  0.51671441  0.16894426  0.48167100     0.37300
N913        N  0.49558824  0.14817054  0.45630912    -0.89300
H914        H  0.51119098  0.12738191  0.52251508     0.18400
H915        H  0.56605907  0.24941465  0.49134706     0.18400
N916        N  0.58333180  0.22781701  0.55571772    -0.88300
H917        H  0.48512554  0.12365639  0.46766332     0.35800
H918        H  0.51481496  0.14073156  0.43568135     0.40900
H919        H  0.61026397  0.23265778  0.54369269     0.40500
H920        H  0.57046913  0.25316928  0.56015461     0.35400
C921        C  0.65318029  0.15079262  0.58737898    -0.26300
C922        C  0.61712515  0.16518275  0.59607635    -0.14400
C923        C  0.61464190  0.19368169  0.62161708     0.36200
C924        C  0.64744765  0.20679333  0.63807113    -0.25800
C925        C  0.68323551  0.19065191  0.63159864    -0.15000
C926        C  0.68603653  0.16300658  0.60492536     0.37300
N927        N  0.72171108  0.14609668  0.59648136    -0.89300
H928        H  0.65543326  0.12807073  0.56868378     0.18400
H929        H  0.64397791  0.22807694  0.65814334     0.18400
N930        N  0.57826105  0.20734355  0.63327949    -0.88300
H931        H  0.72798111  0.14965102  0.56915371     0.35800
H932        H  0.71857885  0.11794674  0.60137091     0.40900
H933        H  0.57859914  0.23577859  0.62959153     0.40500
H934        H  0.57451283  0.20230359  0.66069871     0.35400
C935        C  0.77279144  0.44250481  0.51650198    -0.26300
C936        C  0.80806331  0.43338255  0.50085366    -0.14400
C937        C  0.83007579  0.46128866  0.48325422     0.36200
C938        C  0.81726190  0.49782996  0.48324083    -0.25800
C939        C  0.78259244  0.50724379  0.50042930    -0.15000
C940        C  0.75964925  0.47865173  0.51594476     0.37300
N941        N  0.72247657  0.48591529  0.53077509    -0.89300
H942        H  0.75532850  0.42134840  0.52951136     0.18400
H943        H  0.83499069  0.51901086  0.47061117     0.18400
N944        N  0.86617192  0.45292965  0.46653166    -0.88300
H945        H  0.72146839  0.47702327  0.55734939     0.35800
H946        H  0.70285168  0.47004420  0.51687384     0.40900
H947        H  0.88696416  0.46921092  0.47841472     0.40500
H948        H  0.86545858  0.46024143  0.43956392     0.35400
C949        C  0.79075399  0.33248944  0.40782533    -0.26300
C950        C  0.82153888  0.32113527  0.38564095    -0.14400
C951        C  0.85807265  0.33615211  0.39168751     0.36200
C952        C  0.86352164  0.35901894  0.42134101    -0.25800
C953        C  0.83352828  0.36702238  0.44596105    -0.15000
C954        C  0.79628996  0.35495554  0.43783828     0.37300
N955        N  0.76376005  0.36318361  0.46038577    -0.89300
H956        H  0.76231511  0.32221386  0.40294538     0.18400
H957        H  0.89217231  0.36829743  0.42677660     0.18400
N958        N  0.89025583  0.32860461  0.36835547    -0.88300
H959        H  0.76803790  0.35350030  0.48612764     0.35800
H960        H  0.76068882  0.39161522  0.46111257     0.40900
H961        H  0.88354931  0.33541039  0.34223422     0.40500
H962        H  0.89605891  0.30063143  0.36942363     0.35400
C963        C  0.77936503  0.36245309  0.57554857    -0.26300
C964        C  0.81054339  0.38710133  0.57366014    -0.14400
C965        C  0.82572769  0.40008711  0.60572868     0.36200
C966        C  0.81323306  0.38416130  0.63846629    -0.25800
C967        C  0.78648875  0.35493407  0.63961357    -0.15000
C968        C  0.76720524  0.34604600  0.60821150     0.37300
N969        N  0.73863173  0.31735909  0.60870378    -0.89300
H970        H  0.76766167  0.35244141  0.55093207     0.18400
H971        H  0.82737502  0.39187024  0.66267896     0.18400
N972        N  0.85559029  0.42754900  0.60468657    -0.88300
H973        H  0.72873923  0.31280611  0.58303082     0.35800
H974        H  0.71541797  0.32663093  0.62429898     0.40900
H975        H  0.87967485  0.41614468  0.59210889     0.40500
H976        H  0.86317567  0.43459160  0.63061614     0.35400
C977        C  0.45146134  0.12084522  0.60330873    -0.26300
C978        C  0.47967869  0.14818039  0.59694695    -0.14400
C979        C  0.46939390  0.18524586  0.60105161     0.36200
C980        C  0.43278291  0.19403846  0.61426629    -0.25800
C981        C  0.40600407  0.16663303  0.62476597    -0.15000
C982        C  0.41477590  0.12955433  0.61710338     0.37300
N983        N  0.38764056  0.10065369  0.62564042    -0.89300
H984        H  0.45877958  0.09229958  0.59948177     0.18400
H985        H  0.42642646  0.22269124  0.61901206     0.18400
N986        N  0.49681596  0.21419646  0.59484818    -0.88300
H987        H  0.39928610  0.07496729  0.61998424     0.35800
H988        H  0.36497142  0.10345868  0.60864602     0.40900
H989        H  0.49936679  0.22908054  0.61861330     0.40500
H990        H  0.48640383  0.23175381  0.57560879     0.35400
C991        C  0.36730021  0.46827233  0.50571115    -0.26300
C992        C  0.33866413  0.49419452  0.50106367    -0.14400
C993        C  0.30103196  0.48110972  0.49610371     0.36200
C994        C  0.29361829  0.44294152  0.49448982    -0.25800
C995        C  0.32247709  0.41725042  0.49860793    -0.15000
C996        C  0.35978009  0.43022161  0.50451529     0.37300
N997        N  0.39071680  0.40566624  0.50913643    -0.89300
H998        H  0.39615540  0.47787918  0.50965330     0.18400
H999        H  0.26484928  0.43311678  0.49048713     0.18400
N1000       N  0.26968316  0.50541762  0.49298605    -0.88300
H1001       H  0.41101717  0.41085081  0.48855517     0.35800
H1002       H  0.38201083  0.37838866  0.50592357     0.40900
H1003       H  0.27844419  0.53252197  0.49653381     0.40500
H1004       H  0.25026662  0.49973369  0.51419137     0.35400
C1005       C  0.34829708  0.33264695  0.38011920    -0.26300
C1006       C  0.31557335  0.33514621  0.35973390    -0.14400
C1007       C  0.28565858  0.35779971  0.37327761     0.36200
C1008       C  0.28668865  0.37198829  0.40824576    -0.25800
C1009       C  0.31673927  0.36425687  0.43039250    -0.15000
C1010       C  0.34901755  0.34698094  0.41511395     0.37300
N1011       N  0.38106088  0.34045844  0.43656450    -0.89300
H1012       H  0.37220815  0.31661457  0.37035156     0.18400
H1013       H  0.26166941  0.38532445  0.41958050     0.18400
N1014       N  0.25305531  0.36578264  0.35304736    -0.88300
H1015       H  0.40511582  0.35223959  0.42360154     0.35800
H1016       H  0.38501833  0.31211719  0.43783296     0.40900
H1017       H  0.23631268  0.34207057  0.35041039     0.40500
H1018       H  0.26228809  0.37530511  0.32779016     0.35400
C1019       C  0.34436034  0.34984696  0.57809080    -0.26300
C1020       C  0.31030214  0.36308585  0.56500001    -0.14400
C1021       C  0.27828183  0.36525857  0.58885112     0.36200
C1022       C  0.27936656  0.34908940  0.62282958    -0.25800
C1023       C  0.31172798  0.33046228  0.63386481    -0.15000
C1024       C  0.34541110  0.33352220  0.61211919     0.37300
N1025       N  0.38004247  0.31760770  0.62299594    -0.89300
H1026       H  0.36909840  0.34754030  0.56016642     0.18400
H1027       H  0.25343968  0.34857860  0.63943028     0.18400
N1028       N  0.24294003  0.38007630  0.57796727    -0.88300
H1029       H  0.40100620  0.33829998  0.62297728     0.35800
H1030       H  0.38833160  0.29791905  0.60396731     0.40900
H1031       H  0.24612964  0.39174363  0.55253169     0.40500
H1032       H  0.23611401  0.40167922  0.59540310     0.35400
C1033       C  0.57226945  0.46122910  0.20238600    -0.26300
C1034       C  0.59558303  0.45640328  0.17150054    -0.14400
C1035       C  0.57848418  0.45054432  0.13844810     0.36200
C1036       C  0.53885815  0.45011957  0.13671917    -0.25800
C1037       C  0.51520507  0.45620280  0.16729341    -0.15000
C1038       C  0.53227993  0.46148477  0.20068624     0.37300
N1039       N  0.51024942  0.46782566  0.23311222    -0.89300
H1040       H  0.58526276  0.46554385  0.22786259     0.18400
H1041       H  0.52624192  0.44609247  0.11099115     0.18400
N1042       N  0.60088780  0.44600323  0.10601363    -0.88300
H1043       H  0.51421844  0.44556576  0.25004209     0.35800
H1044       H  0.48134621  0.46839295  0.22827677     0.40900
H1045       H  0.61815081  0.42324017  0.10881298     0.40500
H1046       H  0.61837546  0.46925653  0.10229963     0.35400
C1047       C  0.44204268  0.39078261  0.19914206    -0.26300
C1048       C  0.44982989  0.39301330  0.16208788    -0.14400
C1049       C  0.44155733  0.36212260  0.14040372     0.36200
C1050       C  0.42127924  0.33219957  0.15550423    -0.25800
C1051       C  0.40970747  0.33192388  0.19184830    -0.15000
C1052       C  0.42172381  0.36076964  0.21413095     0.37300
N1053       N  0.41047610  0.36135524  0.25134488    -0.89300
H1054       H  0.44817590  0.41398520  0.21617411     0.18400
H1055       H  0.41330540  0.30951738  0.13834362     0.18400
N1056       N  0.45171340  0.36091244  0.10280446    -0.88300
H1057       H  0.39437834  0.38482826  0.25627901     0.35800
H1058       H  0.43505729  0.36360820  0.26609311     0.40900
H1059       H  0.46894875  0.33810993  0.09841974     0.40500
H1060       H  0.46861444  0.38361375  0.09523775     0.35400
C1061       C  0.45828111  0.55685370  0.16152390    -0.26300
C1062       C  0.44941522  0.52124208  0.17388971    -0.14400
C1063       C  0.42165428  0.51666939  0.20185306     0.36200
C1064       C  0.40236168  0.54715407  0.21584636    -0.25800
C1065       C  0.40881085  0.58218730  0.20142137    -0.15000
C1066       C  0.43813353  0.58744857  0.17476894     0.37300
N1067       N  0.44706707  0.62285577  0.15948541    -0.89300
H1068       H  0.47885693  0.56055340  0.13946406     0.18400
H1069       H  0.37987975  0.54289471  0.23613339     0.18400
N1070       N  0.41002902  0.48063947  0.21349799    -0.88300
H1071       H  0.47489974  0.62978123  0.16608715     0.35800
H1072       H  0.42974091  0.64318814  0.17068196     0.40900
H1073       H  0.38121700  0.47694310  0.20833055     0.40500
H1074       H  0.41285797  0.47928684  0.24117986     0.35400
C1075       C  0.53164188  0.47850874  0.77599860    -0.26300
C1076       C  0.49973554  0.46309960  0.79450258    -0.14400
C1077       C  0.50437100  0.44742385  0.82820414     0.36200
C1078       C  0.54075280  0.44653396  0.84234703    -0.25800
C1079       C  0.57290355  0.46181211  0.82373386    -0.15000
C1080       C  0.56780295  0.47900091  0.79040111     0.37300
N1081       N  0.59818592  0.49733909  0.77042485    -0.89300
H1082       H  0.52853171  0.48966742  0.74953680     0.18400
H1083       H  0.54389157  0.43441162  0.86844438     0.18400
N1084       N  0.47217794  0.43298376  0.84837704    -0.88300
H1085       H  0.60173646  0.48390463  0.74580371     0.35800
H1086       H  0.62391119  0.49554222  0.78308423     0.40900
H1087       H  0.47013456  0.44715627  0.87271070     0.40500
H1088       H  0.47720639  0.40541863  0.85390976     0.35400
C1089       C  0.45820817  0.36365560  0.76914120    -0.26300
C1090       C  0.44110550  0.39625958  0.78024238    -0.14400
C1091       C  0.40713114  0.39485617  0.80146416     0.36200
C1092       C  0.38809325  0.36119523  0.80713301    -0.25800
C1093       C  0.40232790  0.32910061  0.79129982    -0.15000
C1094       C  0.43930414  0.32991947  0.77495663     0.37300
N1095       N  0.45673717  0.29684957  0.76231966    -0.89300
H1096       H  0.48458930  0.36460272  0.75319458     0.18400
H1097       H  0.36010929  0.36102186  0.82030673     0.18400
N1098       N  0.38996681  0.42803563  0.81415626    -0.88300
H1099       H  0.48241419  0.29418863  0.77516259     0.35800
H1100       H  0.46318141  0.29980090  0.73494611     0.40900
H1101       H  0.36309499  0.42978182  0.80334282     0.40500
H1102       H  0.38624162  0.42619543  0.84195973     0.35400
C1103       C  0.41119249  0.52780087  0.79627632    -0.26300
C1104       C  0.44226496  0.52573526  0.77173437    -0.14400
C1105       C  0.45581039  0.55782812  0.75441157     0.36200
C1106       C  0.43539460  0.59017147  0.75852339    -0.25800
C1107       C  0.40088262  0.59098530  0.77898839    -0.15000
C1108       C  0.39029967  0.56013554  0.80003620     0.37300
N1109       N  0.35700436  0.56049979  0.82328161    -0.89300
H1110       H  0.40073953  0.50323492  0.80988748     0.18400
H1111       H  0.44523014  0.61403618  0.74339556     0.18400
N1112       N  0.48915218  0.55792261  0.73121272    -0.88300
H1113       H  0.36514008  0.55428691  0.84912691     0.35800
H1114       H  0.33833860  0.53977955  0.81503644     0.40900
H1115       H  0.48567399  0.53834438  0.71105910     0.40500
H1116       H  0.51221740  0.55069219  0.74630983     0.35400
C1117       C  0.96532544  0.21334848  0.14451500    -0.26300
C1118       C  0.93273993  0.19080556  0.14209144    -0.14400
C1119       C  0.93263090  0.16268716  0.11575908     0.36200
C1120       C  0.96559275  0.15645756  0.09429232    -0.25800
C1121       C  0.99883063  0.17775335  0.09825249    -0.15000
C1122       C  0.99857479  0.20659668  0.12359722     0.37300
N1123       N  0.03283300  0.22741091  0.12970250    -0.89300
H1124       H  0.96569899  0.23491367  0.16454137     0.18400
H1125       H  0.96574420  0.13389598  0.07532225     0.18400
N1126       N  0.89951366  0.14034055  0.10988569    -0.88300
H1127       H  0.05237910  0.20960882  0.14043920     0.35800
H1128       H  0.02781906  0.24782667  0.14894257     0.40900
H1129       H  0.87684090  0.15754066  0.10488959     0.40500
H1130       H  0.89279073  0.12501032  0.13286318     0.35400
C1131       C  0.20134968  0.18717056  0.08057341    -0.26300
C1132       C  0.20065340  0.21694033  0.10453548    -0.14400
C1133       C  0.16723893  0.23786038  0.10776202     0.36200
C1134       C  0.13408723  0.22588757  0.09105159    -0.25800
C1135       C  0.13329020  0.19276278  0.07165954    -0.15000
C1136       C  0.16824626  0.17506136  0.06380544     0.37300
N1137       N  0.17050675  0.14303221  0.04132033    -0.89300
H1138       H  0.22678451  0.17089075  0.07767241     0.18400
H1139       H  0.10781353  0.24013775  0.09701450     0.18400
N1140       N  0.16521805  0.26938055  0.13071385    -0.88300
H1141       H  0.18948389  0.14924009  0.01991182     0.35800
H1142       H  0.14443203  0.13723700  0.02997719     0.40900
H1143       H  0.18650213  0.28805842  0.12210754     0.40500
H1144       H  0.17075158  0.26136333  0.15678135     0.35400
C1145       C  0.93682817  0.65229875  0.91633137    -0.26300
C1146       C  0.97258124  0.66501835  0.90303221    -0.14400
C1147       C  0.97395723  0.69091425  0.87468874     0.36200
C1148       C  0.94016719  0.70213479  0.85997905    -0.25800
C1149       C  0.90456138  0.68721855  0.87107865    -0.15000
C1150       C  0.90290032  0.66312549  0.90066665     0.37300
N1151       N  0.86708702  0.64890664  0.91441435    -0.89300
H1152       H  0.93535024  0.63209112  0.93755184     0.18400
H1153       H  0.94243184  0.72088173  0.83755553     0.18400
N1154       N  0.00894057  0.70434385  0.85786094    -0.88300
H1155       H  0.86415478  0.65633490  0.94139374     0.35800
H1156       H  0.86770944  0.62025949  0.91293067     0.40900
H1157       H  0.03293800  0.69408045  0.86943359     0.40500
H1158       H  0.01002860  0.73282757  0.86131540     0.35400
C1159       C  0.11653611  0.69014811  0.90430248    -0.26300
C1160       C  0.10909811  0.65242720  0.90831507    -0.14400
C1161       C  0.13929382  0.62784908  0.90104199     0.36200
C1162       C  0.17286072  0.64069548  0.88338003    -0.25800
C1163       C  0.17755927  0.67778970  0.87368921    -0.15000
C1164       C  0.15026087  0.70312652  0.88729018     0.37300
N1165       N  0.15524457  0.74208890  0.88358590    -0.89300
H1166       H  0.09462047  0.70967343  0.91113984     0.18400
H1167       H  0.19428328  0.62099802  0.87527725     0.18400
N1168       N  0.13658946  0.58970403  0.91059301    -0.88300
H1169       H  0.15256488  0.74952421  0.85693915     0.35800
H1170       H  0.18228234  0.74968088  0.89198419     0.40900
H1171       H  0.11182697  0.58396935  0.92599264     0.40500
H1172       H  0.13564146  0.57428673  0.88700538     0.35400
C1173       C  0.15734200  0.88718320  0.30738769    -0.26300
C1174       C  0.12909709  0.88815658  0.28189595    -0.14400
C1175       C  0.11756104  0.85525998  0.26543586     0.36200
C1176       C  0.13869596  0.82361609  0.27022038    -0.25800
C1177       C  0.17166030  0.82411617  0.29060844    -0.15000
C1178       C  0.17928907  0.85582364  0.31145103     0.37300
N1179       N  0.21084665  0.85840376  0.33442224    -0.89300
H1180       H  0.16605476  0.91244109  0.32040920     0.18400
H1181       H  0.13086607  0.79919458  0.25540380     0.18400
N1182       N  0.08670532  0.85384136  0.24134803    -0.88300
H1183       H  0.23599595  0.85506035  0.31908087     0.35800
H1184       H  0.20809406  0.83748878  0.35344663     0.40900
H1185       H  0.07267404  0.87885450  0.24128045     0.40500
H1186       H  0.06671691  0.83464099  0.25152072     0.35400
C1187       C  0.16851130  0.01830465  0.30371301    -0.26300
C1188       C  0.13715620  0.01732897  0.28157526    -0.14400
C1189       C  0.12308553  0.05020269  0.26863898     0.36200
C1190       C  0.14355292  0.08302850  0.27382319    -0.25800
C1191       C  0.17855156  0.08313798  0.29100551    -0.15000
C1192       C  0.18956386  0.05099848  0.30855353     0.37300
N1193       N  0.22413813  0.05060438  0.32777924    -0.89300
H1194       H  0.17916431  0.99271554  0.31372633     0.18400
H1195       H  0.13405747  0.10778226  0.26116449     0.18400
N1196       N  0.08987712  0.04977733  0.24767766    -0.88300
H1197       H  0.22915894  0.02426810  0.33733251     0.35800
H1198       H  0.22013163  0.06735369  0.35032169     0.40900
H1199       H  0.09738031  0.06053028  0.22246060     0.40500
H1200       H  0.06996418  0.06716768  0.26000688     0.35400
C1201       C  0.91077657  0.85842937  0.71673608    -0.26300
C1202       C  0.89085528  0.83537876  0.69355417    -0.14400
C1203       C  0.89501362  0.84135704  0.65635753     0.36200
C1204       C  0.91446488  0.87279282  0.64360705    -0.25800
C1205       C  0.92884878  0.89910559  0.66733512    -0.15000
C1206       C  0.92969335  0.89010751  0.70409778     0.37300
N1207       N  0.94708795  0.91345410  0.72976872    -0.89300
H1208       H  0.90930343  0.85346629  0.74530772     0.18400
H1209       H  0.91475961  0.87855467  0.61517912     0.18400
N1210       N  0.87816481  0.81653166  0.63148059    -0.88300
H1211       H  0.93433782  0.93896951  0.72945199     0.35800
H1212       H  0.97599606  0.91620918  0.72279775     0.40900
H1213       H  0.89970004  0.80697786  0.61398191     0.40500
H1214       H  0.85904532  0.83117012  0.61652184     0.35400
C1215       C  0.94176836  0.06415114  0.65338803    -0.26300
C1216       C  0.93844724  0.03264396  0.67487194    -0.14400
C1217       C  0.92224053  0.03584412  0.70984132     0.36200
C1218       C  0.90831995  0.06955887  0.72193396    -0.25800
C1219       C  0.90718286  0.09966917  0.69886528    -0.15000
C1220       C  0.92540539  0.09730162  0.66456335     0.37300
N1221       N  0.92662369  0.12747998  0.64010436    -0.89300
H1222       H  0.95318430  0.06183380  0.62615480     0.18400
H1223       H  0.89442400  0.07089647  0.74828790     0.18400
N1224       N  0.91565654  0.00410840  0.73174971    -0.88300
H1225       H  0.93846038  0.15029150  0.65286674     0.35800
H1226       H  0.89891950  0.13353209  0.63330505     0.40900
H1227       H  0.88633792  0.00105392  0.73683268     0.40500
H1228       H  0.92830320  0.00883905  0.75622771     0.35400
C1229       C  0.25254509  0.06127088  0.93162392    -0.26300
C1230       C  0.28309603  0.03708232  0.93354289    -0.14400
C1231       C  0.30400754  0.02825661  0.90189230     0.36200
C1232       C  0.29739971  0.04746581  0.87018696    -0.25800
C1233       C  0.27041008  0.07554297  0.86944400    -0.15000
C1234       C  0.24585755  0.08058666  0.89983485     0.37300
N1235       N  0.21666929  0.10767244  0.89948574    -0.89300
H1236       H  0.23649904  0.06812369  0.95597347     0.18400
H1237       H  0.31551226  0.04249448  0.84663535     0.18400
N1238       N  0.33333283  0.00126766  0.90255618    -0.88300
H1239       H  0.20240036  0.10918565  0.92448012     0.35800
H1240       H  0.19651775  0.09863403  0.88145964     0.40900
H1241       H  0.35508506  0.01150586  0.91823446     0.40500
H1242       H  0.34545448  0.99731073  0.87690491     0.35400
C1243       C  0.30747841  0.03213171  0.09184293    -0.26300
C1244       C  0.28574210  0.04257897  0.06306700    -0.14400
C1245       C  0.25683605  0.06869124  0.06907758     0.36200
C1246       C  0.25268240  0.08613650  0.10247838    -0.25800
C1247       C  0.27732170  0.07854368  0.13006625    -0.15000
C1248       C  0.30321355  0.04949156  0.12543705     0.37300
N1249       N  0.32636971  0.03899419  0.15440238    -0.89300
H1250       H  0.32987072  0.01240568  0.08729789     0.18400
H1251       H  0.23243022  0.10808765  0.10570694     0.18400
N1252       N  0.23360949  0.08041209  0.04079795    -0.88300
H1253       H  0.34416359  0.01747576  0.14661110     0.35800
H1254       H  0.30809413  0.02880176  0.17487539     0.40900
H1255       H  0.21910495  0.05746285  0.03102541     0.40500
H1256       H  0.25114245  0.09133530  0.02015707     0.35400
C1257       C  0.79318331  0.85019060  0.93284289    -0.26300
C1258       C  0.76602161  0.87802814  0.93260494    -0.14400
C1259       C  0.75298700  0.89009221  0.89957546     0.36200
C1260       C  0.76425320  0.87185410  0.86800823    -0.25800
C1261       C  0.78861240  0.84170447  0.86864351    -0.15000
C1262       C  0.80513287  0.83224842  0.90107796     0.37300
N1263       N  0.83060711  0.80187533  0.90229924    -0.89300
H1264       H  0.80255968  0.84029102  0.95828937     0.18400
H1265       H  0.75146263  0.87934032  0.84321927     0.18400
N1266       N  0.72627290  0.91918158  0.89773018    -0.88300
H1267       H  0.83885682  0.79748933  0.92848160     0.35800
H1268       H  0.85534987  0.80923523  0.88748569     0.40900
H1269       H  0.73822096  0.94250652  0.90954978     0.40500
H1270       H  0.70156525  0.91177712  0.91255438     0.35400
C1271       C  0.78133184  0.85349563  0.06073703    -0.26300
C1272       C  0.74638855  0.87134568  0.05926645    -0.14400
C1273       C  0.71982454  0.86751129  0.08862671     0.36200
C1274       C  0.72701812  0.84277592  0.11628678    -0.25800
C1275       C  0.76098473  0.82314641  0.11641214    -0.15000
C1276       C  0.78890624  0.82976065  0.08903599     0.37300
N1277       N  0.82405616  0.81048431  0.08857750    -0.89300
H1278       H  0.80149274  0.85508857  0.03820959     0.18400
H1279       H  0.70582869  0.83877506  0.13778442     0.18400
N1280       N  0.68463368  0.88707066  0.09034570    -0.88300
H1281       H  0.84624461  0.82994869  0.08823197     0.35800
H1282       H  0.82629029  0.79532495  0.06481748     0.40900
H1283       H  0.68361271  0.90585759  0.06939544     0.40500
H1284       H  0.68427158  0.90283486  0.11377509     0.35400
C1285       C  0.05553557  0.21203897  0.96790562    -0.26300
C1286       C  0.03747250  0.24598480  0.96980690    -0.14400
C1287       C  0.02568480  0.25964743  0.00406665     0.36200
C1288       C  0.03459113  0.24056840  0.03519534    -0.25800
C1289       C  0.05385578  0.20725476  0.03310606    -0.15000
C1290       C  0.06255230  0.19214340  0.99899363     0.37300
N1291       N  0.07750643  0.15594382  0.99584085    -0.89300
H1292       H  0.06415039  0.20071371  0.94217040     0.18400
H1293       H  0.02633349  0.25179945  0.06110295     0.18400
N1294       N  0.00516928  0.29307832  0.00818023    -0.88300
H1295       H  0.10322475  0.15756072  0.98094142     0.35800
H1296       H  0.05845405  0.13988390  0.98144492     0.40900
H1297       H  0.97905822  0.28975910  0.99609812     0.40500
H1298       H  0.02077682  0.31420805  0.99535716     0.35400
C1299       C  0.96194145  0.23279548  0.91393512    -0.26300
C1300       C  0.96539613  0.26979482  0.92405459    -0.14400
C1301       C  0.93335523  0.29246777  0.92084647     0.36200
C1302       C  0.90197719  0.27967985  0.90198869    -0.25800
C1303       C  0.90147488  0.24463673  0.88601182    -0.15000
C1304       C  0.93071945  0.22002223  0.89481147     0.37300
N1305       N  0.93060155  0.18233898  0.88372346    -0.89300
H1306       H  0.98543489  0.21449704  0.91737985     0.18400
H1307       H  0.87915156  0.29854609  0.89763953     0.18400
N1308       N  0.93241469  0.32920435  0.93496574    -0.88300
H1309       H  0.93539969  0.18088161  0.85607502     0.35800
H1310       H  0.90418836  0.17035082  0.89083065     0.40900
H1311       H  0.95611070  0.33503072  0.95011649     0.40500
H1312       H  0.93304350  0.34738438  0.91338493     0.35400
C1313       C  0.13727257  0.27759590  0.91939134    -0.26300
C1314       C  0.10114621  0.26592817  0.90867860    -0.14400
C1315       C  0.09879440  0.24177666  0.87917436     0.36200
C1316       C  0.13188165  0.23016783  0.86107919    -0.25800
C1317       C  0.16820015  0.24285498  0.87043744    -0.15000
C1318       C  0.17073017  0.26635188  0.90072553     0.37300
N1319       N  0.20654320  0.27927114  0.91322303    -0.89300
H1320       H  0.13943485  0.29681576  0.94142920     0.18400
H1321       H  0.12871752  0.21248363  0.83800354     0.18400
N1322       N  0.06300191  0.23051538  0.86524338    -0.88300
H1323       H  0.21988679  0.29578144  0.89354677     0.35800
H1324       H  0.22348624  0.25660554  0.91784605     0.40900
H1325       H  0.04837834  0.25375811  0.85759164     0.40500
H1326       H  0.04690731  0.21688884  0.88524002     0.35400
C1327       C  0.05446535  0.65161751  0.98825011    -0.26300
C1328       C  0.04051658  0.67390585  0.96128124    -0.14400
C1329       C  0.03058789  0.71041760  0.97002387     0.36200
C1330       C  0.03625789  0.72385086  0.00461563    -0.25800
C1331       C  0.05165680  0.70184628  0.03111390    -0.15000
C1332       C  0.06011970  0.66514169  0.02277057     0.37300
N1333       N  0.07413704  0.64124162  0.04920902    -0.89300
H1334       H  0.06163563  0.62341306  0.98217641     0.18400
H1335       H  0.02970277  0.75221909  0.01058054     0.18400
N1336       N  0.01595088  0.73498261  0.94445637    -0.88300
H1337       H  0.10037741  0.63132859  0.03974436     0.35800
H1338       H  0.05525169  0.61888751  0.05211522     0.40900
H1339       H  0.98931777  0.72526653  0.93720210     0.40500
H1340       H  0.03449780  0.73598012  0.92203410     0.35400
C1341       C  0.97603766  0.77042143  0.09924823    -0.26300
C1342       C  0.99738960  0.73893971  0.09127377    -0.14400
C1343       C  0.98088026  0.70420288  0.09907118     0.36200
C1344       C  0.94513608  0.70177473  0.11691506    -0.25800
C1345       C  0.92538065  0.73340150  0.12809738    -0.15000
C1346       C  0.94055005  0.76804350  0.11772087     0.37300
N1347       N  0.92077555  0.80103290  0.12675433    -0.89300
H1348       H  0.98794524  0.79734738  0.09290621     0.18400
H1349       H  0.93406453  0.67471843  0.12396730     0.18400
N1350       N  0.00118048  0.67123628  0.09131298    -0.88300
H1351       H  0.91619044  0.81514379  0.10306678     0.35800
H1352       H  0.93837312  0.81741126  0.14237926     0.40900
H1353       H  0.98466172  0.65480449  0.07474294     0.40500
H1354       H  0.00434123  0.65712848  0.11527588     0.35400
C1355       C  0.15544468  0.66206413  0.12265889    -0.26300
C1356       C  0.19191611  0.67618210  0.11389494    -0.14400
C1357       C  0.19707856  0.69934050  0.08381487     0.36200
C1358       C  0.16506945  0.71042354  0.06525608    -0.25800
C1359       C  0.12813717  0.70103700  0.07799012    -0.15000
C1360       C  0.12348547  0.67548492  0.10612794     0.37300
N1361       N  0.08635630  0.66724933  0.12144115    -0.89300
H1362       H  0.15109037  0.64520675  0.14634956     0.18400
H1363       H  0.16861871  0.73067465  0.04418649     0.18400
N1364       N  0.23404325  0.71486363  0.07479512    -0.88300
H1365       H  0.08539284  0.67641402  0.14797850     0.35800
H1366       H  0.08251214  0.63873348  0.12169305     0.40900
H1367       H  0.24153937  0.73246976  0.09561710     0.40500
H1368       H  0.23300323  0.73120207  0.05193377     0.35400
C1369       C  0.05634979  0.97456979  0.69277605    -0.26300
C1370       C  0.07493992  0.95434199  0.66543492    -0.14400
C1371       C  0.05264688  0.93735349  0.63919708     0.36200
C1372       C  0.01303771  0.94058325  0.64089418    -0.25800
C1373       C  0.99434993  0.96112644  0.66788995    -0.15000
C1374       C  0.01642135  0.97797699  0.69425845     0.37300
N1375       N  0.99854236  0.99800393  0.72294410    -0.89300
H1376       H  0.07279534  0.98815818  0.71288848     0.18400
H1377       H  0.99678093  0.92792357  0.61999945     0.18400
N1378       N  0.07021970  0.91834810  0.60950514    -0.88300
H1379       H  0.00978064  0.02475673  0.72255116     0.35800
H1380       H  0.00561941  0.98580769  0.74699679     0.40900
H1381       H  0.06246515  0.93109556  0.58593946     0.40500
H1382       H  0.05950651  0.89140564  0.60940588     0.35400
C1383       C  0.14874393  0.85973254  0.64008348    -0.26300
C1384       C  0.13529888  0.88792285  0.66266801    -0.14400
C1385       C  0.13220637  0.88141388  0.69984528     0.36200
C1386       C  0.14961126  0.85056473  0.71404675    -0.25800
C1387       C  0.16971606  0.82627293  0.69149178    -0.15000
C1388       C  0.16592338  0.82879678  0.65414753     0.37300
N1389       N  0.18165464  0.80113633  0.63066736    -0.89300
H1390       H  0.14936126  0.86363827  0.61135520     0.18400
H1391       H  0.15060507  0.84778441  0.74283081     0.18400
N1392       N  0.11433904  0.90732500  0.72355822    -0.88300
H1393       H  0.17676457  0.80732693  0.60397543     0.35800
H1394       H  0.16702371  0.77650319  0.63636352     0.40900
H1395       H  0.13397685  0.91530739  0.74248132     0.40500
H1396       H  0.09172585  0.89382687  0.73721226     0.35400
C1397       C  0.14452732  0.05237618  0.65157861    -0.26300
C1398       C  0.13937203  0.01961153  0.67083941    -0.14400
C1399       C  0.15023548  0.01858339  0.70679920     0.36200
C1400       C  0.16837610  0.04919310  0.72189213    -0.25800
C1401       C  0.17741152  0.08022653  0.70114915    -0.15000
C1402       C  0.16394358  0.08243983  0.66622484     0.37300
N1403       N  0.17147760  0.11458179  0.64499718    -0.89300
H1404       H  0.13683373  0.05335338  0.62381555     0.18400
H1405       H  0.17870598  0.04724538  0.74874120     0.18400
N1406       N  0.14668082  0.98531440  0.72689918    -0.88300
H1407       H  0.14542701  0.12478751  0.63734226     0.35800
H1408       H  0.18690359  0.10678709  0.62182734     0.40900
H1409       H  0.17388535  0.97748351  0.73381018     0.40500
H1410       H  0.13093330  0.99078027  0.75053733     0.35400
C1411       C  0.00388255  0.96282618  0.27771083    -0.26300
C1412       C  0.99341145  0.95915787  0.31402505    -0.14400
C1413       C  0.02177800  0.95209397  0.33873978     0.36200
C1414       C  0.06026541  0.95048233  0.32690135    -0.25800
C1415       C  0.07078490  0.95542177  0.29079253    -0.15000
C1416       C  0.04223187  0.96092101  0.26578657     0.37300
N1417       N  0.05241124  0.96452708  0.22834834    -0.89300
H1418       H  0.98203122  0.96633454  0.25851148     0.18400
H1419       H  0.08215510  0.94527330  0.34573204     0.18400
N1420       N  0.01107022  0.94570098  0.37565822    -0.88300
H1421       H  0.02821158  0.96870105  0.21360115     0.35800
H1422       H  0.06368391  0.93963849  0.21944398     0.40900
H1423       H  0.99982917  0.97002425  0.38610390     0.40500
H1424       H  0.03502464  0.94003281  0.39026290     0.35400
C1425       C  0.94167273  0.88518204  0.28497327    -0.26300
C1426       C  0.93736974  0.89096685  0.32198044    -0.14400
C1427       C  0.92755272  0.86062667  0.34410724     0.36200
C1428       C  0.91704421  0.82683324  0.32858292    -0.25800
C1429       C  0.91554011  0.82265204  0.29123882    -0.15000
C1430       C  0.93112603  0.85154912  0.26938926     0.37300
N1431       N  0.93558426  0.84829910  0.23128150    -0.89300
H1432       H  0.94947214  0.90789599  0.26752999     0.18400
H1433       H  0.90665594  0.80482662  0.34593513     0.18400
N1434       N  0.92549768  0.86513424  0.38233268    -0.88300
H1435       H  0.90897377  0.84811656  0.22002221     0.35800
H1436       H  0.94940372  0.82378440  0.22505910     0.40900
H1437       H  0.95292258  0.87147295  0.39049991     0.40500
H1438       H  0.91719010  0.84052269  0.39488630     0.35400
C1439       C  0.94302707  0.03855523  0.29397670    -0.26300
C1440       C  0.93899658  0.02878417  0.33014194    -0.14400
C1441       C  0.92816052  0.05643486  0.35506115     0.36200
C1442       C  0.91675356  0.09111405  0.34314506    -0.25800
C1443       C  0.91634912  0.09934208  0.30647892    -0.15000
C1444       C  0.93236105  0.07341636  0.28201842     0.37300
N1445       N  0.93627103  0.08156088  0.24459962    -0.89300
H1446       H  0.95094090  0.01817071  0.27422101     0.18400
H1447       H  0.90568293  0.11061075  0.36267682     0.18400
N1448       N  0.92657727  0.04862827  0.39260382    -0.88300
H1449       H  0.92068020  0.06187727  0.23063850     0.35800
H1450       H  0.96494666  0.07914418  0.23669167     0.40900
H1451       H  0.89874631  0.05277930  0.40242644     0.40500
H1452       H  0.94433058  0.06756557  0.40517766     0.35400
C1453       C  0.82270513  0.98053868  0.99009685    -0.26300
C1454       C  0.79762317  0.00939633  0.99771655    -0.14400
C1455       C  0.75958636  0.00071370  0.00769897     0.36200
C1456       C  0.74692435  0.96373032  0.00802252    -0.25800
C1457       C  0.77187869  0.93479615  0.99935235    -0.15000
C1458       C  0.81044940  0.94372751  0.99094625     0.37300
N1459       N  0.83817236  0.91621684  0.98375205    -0.89300
H1460       H  0.85239775  0.98677178  0.98366754     0.18400
H1461       H  0.71726424  0.95752353  0.01461348     0.18400
N1462       N  0.73370071  0.02931244  0.01717221    -0.88300
H1463       H  0.83193672  0.90303725  0.95994847     0.35800
H1464       H  0.83697898  0.89728513  0.00464492     0.40900
H1465       H  0.72310179  0.02448785  0.04325644     0.40500
H1466       H  0.71089536  0.02758930  0.00010385     0.35400
C1467       C  0.78643096  0.08675686  0.88805087    -0.26300
C1468       C  0.81775272  0.09508657  0.86475256    -0.14400
C1469       C  0.85367813  0.08149812  0.87327805     0.36200
C1470       C  0.85862011  0.06564685  0.90698228    -0.25800
C1471       C  0.82815177  0.06219297  0.93228147    -0.15000
C1472       C  0.79131438  0.07049015  0.92153447     0.37300
N1473       N  0.75901864  0.06532198  0.94547951    -0.89300
H1474       H  0.75820088  0.09546011  0.88167117     0.18400
H1475       H  0.88700378  0.05831808  0.91432317     0.18400
N1476       N  0.88548899  0.08463914  0.84834610    -0.88300
H1477       H  0.73980957  0.04759542  0.93315991     0.35800
H1478       H  0.74589167  0.09064023  0.94920977     0.40900
H1479       H  0.89561882  0.05825836  0.84314589     0.40500
H1480       H  0.90698700  0.09982846  0.86043196     0.35400
C1481       C  0.80572870  0.05618930  0.09163194    -0.26300
C1482       C  0.79831167  0.07252972  0.05897172    -0.14400
C1483       C  0.77673902  0.10501919  0.05892710     0.36200
C1484       C  0.76766039  0.12300797  0.09120595    -0.25800
C1485       C  0.77993389  0.10931979  0.12368633    -0.15000
C1486       C  0.79633868  0.07406840  0.12400077     0.37300
N1487       N  0.80517343  0.05708579  0.15705728    -0.89300
H1488       H  0.82186511  0.03112411  0.09200417     0.18400
H1489       H  0.75413636  0.14947715  0.09041732     0.18400
N1490       N  0.76621044  0.12182652  0.02628853    -0.88300
H1491       H  0.83439086  0.05220923  0.15659897     0.35800
H1492       H  0.79083589  0.03172983  0.15855040     0.40900
H1493       H  0.74964307  0.10292668  0.01243766     0.40500
H1494       H  0.79072035  0.12801493  0.01067639     0.35400
C1495       C  0.27794353  0.91626184  0.00490063    -0.26300
C1496       C  0.23863679  0.90964475  0.00555935    -0.14400
C1497       C  0.21401848  0.93997450  0.00431199     0.36200
C1498       C  0.22901582  0.97599511  0.00242103    -0.25800
C1499       C  0.26836546  0.98262017  0.00159332    -0.15000
C1500       C  0.29298526  0.95217160  0.00273947     0.37300
N1501       N  0.33349435  0.95692334  0.00128603    -0.89300
H1502       H  0.29710703  0.89337832  0.00556714     0.18400
H1503       H  0.20989219  0.99887253  0.00121956     0.18400
N1504       N  0.17358736  0.93482442  0.00476940    -0.88300
H1505       H  0.34137823  0.97315449  0.02294221     0.35800
H1506       H  0.34162333  0.97044590  0.97756083     0.40900
H1507       H  0.16518819  0.92032965  0.02787453     0.40500
H1508       H  0.16661696  0.91902633  0.98253244     0.35400
C1509       C  0.26059975  0.85236413  0.93239640    -0.26300
C1510       C  0.22158836  0.85620635  0.94034428    -0.14400
C1511       C  0.19590676  0.85099255  0.91237933     0.36200
C1512       C  0.20933000  0.83768629  0.87897359    -0.25800
C1513       C  0.24802317  0.82979979  0.87211842    -0.15000
C1514       C  0.27402957  0.83930357  0.89880763     0.37300
N1515       N  0.31396615  0.83366702  0.89299986    -0.89300
H1516       H  0.28066040  0.85597500  0.95339952     0.18400
H1517       H  0.18874753  0.83183281  0.85881538     0.18400
N1518       N  0.15575100  0.85705559  0.91747196    -0.88300
H1519       H  0.32279521  0.81545508  0.91243764     0.35800
H1520       H  0.32809884  0.85879648  0.89668207     0.40900
H1521       H  0.14835249  0.87693183  0.89900834     0.40500
H1522       H  0.14936450  0.86837824  0.94260654     0.35400
C1523       C  0.26471748  0.84696357  0.07532632    -0.26300
C1524       C  0.22623938  0.85572983  0.07276560    -0.14400
C1525       C  0.20198385  0.85238577  0.10374632     0.36200
C1526       C  0.21550388  0.83635248  0.13474669    -0.25800
C1527       C  0.25293251  0.82358585  0.13606018    -0.15000
C1528       C  0.27827162  0.83082637  0.10631535     0.37300
N1529       N  0.31697440  0.81921189  0.10527298    -0.89300
H1530       H  0.28348951  0.84856367  0.05174117     0.18400
H1531       H  0.19581167  0.83211586  0.15742067     0.18400
N1532       N  0.16291253  0.86333281  0.10406165    -0.88300
H1533       H  0.31734482  0.79075106  0.10858902     0.35800
H1534       H  0.33107371  0.83205901  0.12611892     0.40900
H1535       H  0.15662775  0.87657899  0.08035456     0.40500
H1536       H  0.14584463  0.83959491  0.10594536     0.35400
loop_ 
_geom_bond_atom_site_label_1 
_geom_bond_atom_site_label_2 
_geom_bond_distance 
_geom_bond_site_symmetry_2 
_ccdc_geom_bond_type 
N1            C5   1.364       .  A
N1            C2   1.364   1_554  A
N1         C1496   1.447       .  S
C2            C3   1.383       .  A
C2         C1510   1.491       .  S
C3            C4   1.369   1_556  A
C3            H6   1.082       .  S
C4            C5   1.383       .  A
C4            H7   1.083       .  S
C5         C1524   1.488       .  S
N8           C12   1.365       .  A
N8            C9   1.358   1_556  A
N8         C1454   1.449       .  S
C9           C10   1.380       .  A
C9         C1482   1.476       .  S
C10          C11   1.366   1_554  A
C10          H13   1.083       .  S
C11          C12   1.384       .  A
C11          H14   1.082       .  S
C12        C1471   1.491       .  S
N15          C19   1.365       .  A
N15          C16   1.371       .  A
N15        C1412   1.445       .  S
C16          C17   1.384       .  A
C16        C1440   1.502   1_565  S
C17          C18   1.367       .  A
C17          H20   1.082       .  S
C18          C19   1.381       .  A
C18          H21   1.082       .  S
C19        C1426   1.495       .  S
N22          C26   1.361       .  A
N22          C23   1.360       .  A
N22        C1370   1.450       .  S
C23          C24   1.382       .  A
C23        C1398   1.479   1_565  S
C24          C25   1.364       .  A
C24          H27   1.083       .  S
C25          C26   1.383       .  A
C25          H28   1.082       .  S
C26        C1384   1.486       .  S
N29          C33   1.362       .  A
N29          C30   1.360       .  A
N29        C1331   1.447       .  S
C30          C31   1.382       .  A
C30        C1359   1.480       .  S
C31          C32   1.367       .  A
C31          H34   1.083       .  S
C32          C33   1.382       .  A
C32          H35   1.082       .  S
C33        C1342   1.491   1_455  S
N36          C40   1.363       .  A
N36          C37   1.363       .  A
N36        C1286   1.450       .  S
C37          C38   1.385       .  A
C37        C1300   1.496   1_455  S
C38          C39   1.371       .  A
C38          H41   1.082   1_455  S
C39          C40   1.380       .  A
C39          H42   1.083       .  S
C40        C1314   1.486       .  S
N43          C47   1.367   1_556  A
N43          C44   1.362       .  A
N43        C1457   1.453       .  S
C44          C45   1.379       .  A
C44        C1258   1.478       .  S
C45          C46   1.363   1_556  A
C45          H48   1.083       .  S
C46          C47   1.383       .  A
C46          H49   1.083       .  S
C47        C1272   1.488       .  S
N50          C54   1.362   1_556  A
N50          C51   1.362       .  A
N50        C1499   1.448   1_546  S
C51          C52   1.382       .  A
C51        C1230   1.484       .  S
C52          C53   1.366   1_556  A
C52          H55   1.083       .  S
C53          C54   1.380       .  A
C53          H56   1.083       .  S
C54        C1244   1.482       .  S
N57          C61   1.364       .  A
N57          C58   1.363       .  A
N57        C1373   1.452       .  S
C58          C59   1.381       .  A
C58        C1205   1.485       .  S
C59          C60   1.360       .  A
C59          H62   1.083       .  S
C60          C61   1.381       .  A
C60          H63   1.083   1_565  S
C61        C1216   1.477   1_565  S
N64          C68   1.354       .  A
N64          C65   1.354       .  A
N64        C1415   1.442       .  S
C65          C66   1.382       .  A
C65        C1174   1.472       .  S
C66          C67   1.367       .  A
C66          H69   1.083       .  S
C67          C68   1.381       .  A
C67          H70   1.083       .  S
C68        C1188   1.471   1_565  S
N71          C75   1.365       .  A
N71          C72   1.365       .  A
N71        C1328   1.447       .  S
C72          C73   1.381       .  A
C72        C1146   1.485   1_455  S
C73          C74   1.368       .  A
C73          H76   1.083   1_455  S
C74          C75   1.382       .  A
C74          H77   1.081       .  S
C75        C1160   1.495       .  S
N78          C82   1.362       .  A
N78          C79   1.361       .  A
N78        C1289   1.447       .  S
C79          C80   1.381       .  A
C79        C1121   1.486   1_455  S
C80          C81   1.372       .  A
C80          H83   1.082       .  S
C81          C82   1.384       .  A
C81          H84   1.082       .  S
C82        C1135   1.494       .  S
N85          C89   1.354       .  A
N85          C86   1.355       .  A
N85        C1076   1.443       .  S
C86          C87   1.380       .  A
C86        C1104   1.470       .  S
C87          C88   1.368       .  A
C87          H90   1.083       .  S
C88          C89   1.381       .  A
C88          H91   1.083       .  S
C89        C1090   1.469       .  S
N92          C96   1.363       .  A
N92          C93   1.361       .  A
N92        C1037   1.449       .  S
C93          C94   1.381       .  A
C93        C1048   1.485       .  S
C94          C95   1.366       .  A
C94          H97   1.082       .  S
C95          C96   1.383       .  A
C95          H98   1.083       .  S
C96        C1062   1.483       .  S
N99         C103   1.365       .  A
N99         C100   1.365       .  A
N99         C995   1.448       .  S
C100        C101   1.380       .  A
C100       C1020   1.482       .  S
C101        C102   1.365       .  A
C101        H104   1.083       .  S
C102        C103   1.381       .  A
C102        H105   1.083       .  S
C103       C1009   1.482       .  S
Zr106       O107   2.442       .  S
Zr106       O108   2.469       .  S
Zr106       O109   2.455       .  S
Zr106       O112   2.430       .  S
Zr106       O114   2.381       .  S
Zr106       O115   2.386       .  S
Zr106       O116   2.415       .  S
Zr106       O117   2.409       .  S
O107        H163   0.990       .  S
O107        H171   0.991       .  S
O108        C128   1.289       .  A
O109        C130   1.286       .  A
O110       Zr120   2.458       .  S
O110        C129   1.288       .  A
O111       Zr119   2.409       .  S
O111        C130   1.281       .  A
O112        C129   1.285       .  A
O113       Zr121   2.415       .  S
O113        C128   1.281       .  A
O114       Zr119   2.407       .  S
O114       Zr121   2.381       .  S
O115       Zr120   2.397       .  S
O115       Zr121   2.380       .  S
O115        H150   0.965       .  S
O116       Zr119   2.406       .  S
O116       Zr136   2.398       .  S
O116        H153   0.964       .  S
O117       Zr120   2.390       .  S
O117       Zr136   2.394       .  S
Zr118       O143   2.438       .  S
Zr118       O137   2.459       .  S
Zr118       O145   2.397       .  S
Zr118       O133   2.436       .  S
Zr118       O124   2.407       .  S
Zr118       O125   2.401       .  S
Zr118       O126   2.366       .  S
Zr118       O127   2.385       .  S
Zr119       O138   2.436       .  S
Zr119       O131   2.433       .  S
Zr119       O132   2.449       .  S
Zr119       O125   2.393       .  S
Zr119       O126   2.388       .  S
Zr120       O122   2.436       .  S
Zr120       O144   2.438       .  S
Zr120       O146   2.453       .  S
Zr120       O124   2.391       .  S
Zr120       O127   2.400       .  S
Zr121       O147   2.435       .  S
Zr121       O148   2.439       .  S
Zr121       O123   2.438       .  S
Zr121       O124   2.392       .  S
Zr121       O125   2.388       .  S
O122        H159   0.990       .  S
O123        H154   0.990       .  S
O123        H168   0.990       .  S
O125        H151   0.965       .  S
O126       Zr136   2.380       .  S
O127       Zr136   2.371       .  S
O127        H152   0.966       .  S
C128       C1233   1.496       .  S
C129       C1317   1.500       .  S
C130       C1401   1.474       .  S
O131        H167   0.990       .  S
O132        C134   1.287       .  A
O133        C134   1.285       .  A
C134        C981   1.497       .  S
O135       Zr136   2.440       .  S
O135        H164   0.990       .  S
Zr136       O139   2.437       .  S
Zr136       O140   2.441       .  S
Zr136       O141   2.424       .  S
O137        C142   1.289       .  A
O138        H155   0.990       .  S
O138        H170   0.990       .  S
O139        H156   0.990       .  S
O140        H160   0.990       .  S
O140        H169   0.990       .  S
O141        C142   1.283       .  A
C142       C1023   1.504       .  S
O143        H162   0.991       .  S
O143        H166   0.990       .  S
O144        H158   0.990       .  S
O144        H165   0.990       .  S
O145        C149   1.279       .  A
O146        C149   1.289       .  A
O147        H157   0.990       .  S
O148        H161   0.990       .  S
C149       C1093   1.478       .  S
N172        C176   1.362       .  A
N172        C173   1.364       .  A
N172        C936   1.449       .  S
C173        C174   1.383       .  A
C173        C953   1.494       .  S
C174        C175   1.367       .  A
C174        H177   1.083       .  S
C175        C176   1.380       .  A
C175        H178   1.083       .  S
C176        C964   1.486       .  S
N179        C183   1.365       .  A
N179        C180   1.369       .  A
N179        C908   1.455       .  S
C180        C181   1.384       .  A
C180        C922   1.494       .  S
C181        C182   1.370       .  A
C181        H184   1.083       .  S
C182        C183   1.380       .  A
C182        H185   1.082       .  S
C183        C978   1.499       .  S
Zr186       O187   2.439       .  S
Zr186       O188   2.436       .  S
Zr186       O189   2.434       .  S
Zr186       O192   2.417       .  S
Zr186       O194   2.375       .  S
Zr186       O195   2.383       .  S
Zr186       O196   2.396       .  S
Zr186       O197   2.395       .  S
O187        H243   0.989       .  S
O187        H251   0.990       .  S
O188        C208   1.286       .  A
O189        C210   1.284       .  A
O190       Zr200   2.446       .  S
O190        C209   1.288       .  A
O191       Zr199   2.461       .  S
O191        C210   1.291       .  A
O192        C209   1.284       .  A
O193       Zr201   2.438       .  S
O193        C208   1.286       .  A
O194       Zr199   2.383       .  S
O194       Zr201   2.372       .  S
O195       Zr200   2.395       .  S
O195       Zr201   2.370       .  S
O195        H230   0.966       .  S
O196       Zr199   2.391       .  S
O196       Zr216   2.389       .  S
O196        H233   0.966       .  S
O197       Zr200   2.393       .  S
O197       Zr216   2.391       .  S
Zr198       O223   2.444       .  S
Zr198       O217   2.466       .  S
Zr198       O225   2.434       .  S
Zr198       O213   2.438       .  S
Zr198       O204   2.408       .  S
Zr198       O205   2.421       .  S
Zr198       O206   2.385       .  S
Zr198       O207   2.377       .  S
Zr199       O218   2.437       .  S
Zr199       O211   2.434       .  S
Zr199       O212   2.430       .  S
Zr199       O205   2.407       .  S
Zr199       O206   2.409       .  S
Zr200       O202   2.435       .  S
Zr200       O224   2.438       .  S
Zr200       O226   2.467       .  S
Zr200       O204   2.391       .  S
Zr200       O207   2.393       .  S
Zr201       O227   2.435       .  S
Zr201       O228   2.434       .  S
Zr201       O203   2.436       .  S
Zr201       O204   2.401       .  S
Zr201       O205   2.397       .  S
O202        H239   0.990       .  S
O203        H234   0.990       .  S
O203        H248   0.990       .  S
O205        H231   0.964       .  S
O206       Zr216   2.376       .  S
O207       Zr216   2.382       .  S
O207        H232   0.965       .  S
C208       C1468   1.497       .  S
C209       C1219   1.478       .  S
C210       C1303   1.504       .  S
O211        H247   0.990       .  S
O212        C214   1.284       .  A
O213        C214   1.284       .  A
C214        C894   1.480       .  S
O215       Zr216   2.433       .  S
O215        H244   0.990       .  S
Zr216       O219   2.435       .  S
Zr216       O220   2.438       .  S
Zr216       O221   2.410       .  S
O217        C222   1.289       .  A
O218        H235   0.990       .  S
O218        H250   0.990       .  S
O219        H236   0.990       .  S
O220        H240   0.990       .  S
O220        H249   0.990       .  S
O221        C222   1.280       .  A
C222        C967   1.491       .  S
O223        H242   0.990       .  S
O223        H246   0.990       .  S
O224        H238   0.990       .  S
O224        H245   0.990       .  S
O225        C229   1.286       .  A
O226        C229   1.291       .  A
O227        H237   0.990       .  S
O228        H241   0.990       .  S
C229        C925   1.509       .  S
N252        C256   1.367       .  A
N252        C253   1.367       .  A
N252        C992   1.454       .  S
C253        C254   1.383       .  A
C253        C880   1.490       .  S
C254        C255   1.364       .  A
C254        H257   1.083       .  S
C255        C256   1.380       .  A
C255        H258   1.083       .  S
C256        C869   1.487       .  S
Zr259       O260   2.441       .  S
Zr259       O261   2.449       .  S
Zr259       O262   2.399       .  S
Zr259       O265   2.412       .  S
Zr259       O267   2.379       .  S
Zr259       O268   2.367       .  S
Zr259       O269   2.408       .  S
Zr259       O270   2.395       .  S
O260        H316   0.990       .  S
O260        H324   0.990       .  S
O261        C281   1.288       .  A
O262        C283   1.279       .  A
O263       Zr273   2.447       .  S
O263        C282   1.286       .  A
O264       Zr272   2.451       .  S
O264        C283   1.288       .  A
O265        C282   1.282       .  A
O266       Zr274   2.427       .  S
O266        C281   1.283       .  A
O267       Zr272   2.398       .  S
O267       Zr274   2.376       .  S
O268       Zr273   2.387       .  S
O268       Zr274   2.379       .  S
O268        H303   0.966       .  S
O269       Zr272   2.399       .  S
O269       Zr289   2.405       .  S
O269        H306   0.966       .  S
O270       Zr273   2.382       .  S
O270       Zr289   2.400       .  S
Zr271       O296   2.441       .  S
Zr271       O290   2.438       .  S
Zr271       O298   2.433       .  S
Zr271       O286   2.425       .  S
Zr271       O277   2.394       .  S
Zr271       O278   2.401       .  S
Zr271       O279   2.378       .  S
Zr271       O280   2.385       .  S
Zr272       O291   2.435       .  S
Zr272       O284   2.435       .  S
Zr272       O285   2.450       .  S
Zr272       O278   2.403       .  S
Zr272       O279   2.394       .  S
Zr273       O275   2.435       .  S
Zr273       O297   2.436       .  S
Zr273       O299   2.418       .  S
Zr273       O277   2.392       .  S
Zr273       O280   2.403       .  S
Zr274       O300   2.437       .  S
Zr274       O301   2.436       .  S
Zr274       O276   2.438       .  S
Zr274       O277   2.387       .  S
Zr274       O278   2.397       .  S
O275        H312   0.990       .  S
O276        H307   0.990       .  S
O276        H321   0.990       .  S
O278        H304   0.965       .  S
O279       Zr289   2.372       .  S
O280       Zr289   2.380       .  S
O280        H305   0.965       .  S
C281        C883   1.498       .  S
C282        C852   1.492       .  S
C283       C1107   1.487       .  S
O284        H320   0.990       .  S
O285        C287   1.288       .  A
O286        C287   1.281       .  A
C287       C1163   1.494       .  S
O288       Zr289   2.440       .  S
O288        H317   0.990       .  S
Zr289       O292   2.439       .  S
Zr289       O293   2.438       .  S
Zr289       O294   2.451       .  S
O290        C295   1.286       .  A
O291        H308   0.990       .  S
O291        H323   0.990       .  S
O292        H309   0.990       .  S
O293        H313   0.990       .  S
O293        H322   0.990       .  S
O294        C295   1.287       .  A
C295       C1513   1.506       .  S
O296        H315   0.990       .  S
O296        H319   0.990       .  S
O297        H311   0.990       .  S
O297        H318   0.990       .  S
O298        C302   1.285       .  A
O299        C302   1.284       .  A
O300        H310   0.990       .  S
O301        H314   0.990       .  S
C302       C1387   1.478       .  S
N325        C329   1.360       .  A
N325        C326   1.358       .  A
N325       C1079   1.447       .  S
C326        C327   1.383       .  A
C326        C838   1.481       .  S
C327        C328   1.368       .  A
C327        H330   1.083       .  S
C328        C329   1.385       .  A
C328        H331   1.082       .  S
C329        C897   1.498       .  S
N332        C336   1.366       .  A
N332        C333   1.366       .  A
N332        C810   1.455       .  S
C333        C334   1.383       .  A
C333        C824   1.482       .  S
C334        C335   1.367       .  A
C334        H337   1.083       .  S
C335        C336   1.382       .  A
C335        H338   1.082       .  S
C336        C855   1.502       .  S
N339        C343   1.365       .  A
N339        C340   1.365       .  A
N339        C939   1.455       .  S
C340        C341   1.381       .  A
C340        C796   1.484       .  S
C341        C342   1.366       .  A
C341        H344   1.083       .  S
C342        C343   1.382       .  A
C342        H345   1.082       .  S
C343        C782   1.488       .  S
Zr346       O347   2.435       .  S
Zr346       O348   2.436       .  S
Zr346       O349   2.454       .  S
Zr346       O352   2.443       .  S
Zr346       O354   2.376       .  S
Zr346       O355   2.384       .  S
Zr346       O356   2.408       .  S
Zr346       O357   2.405       .  S
O347        H403   0.990       .  S
O347        H411   0.989       .  S
O348        C368   1.284       .  A
O349        C370   1.288       .  A
O350       Zr360   2.415       .  S
O350        C369   1.282       .  A
O351       Zr359   2.433       .  S
O351        C370   1.285       .  A
O352        C369   1.285       .  A
O353       Zr361   2.435       .  S
O353        C368   1.283       .  A
O354       Zr359   2.393       .  S
O354       Zr361   2.376       .  S
O355       Zr360   2.404       .  S
O355       Zr361   2.372       .  S
O355        H390   0.966       .  S
O356       Zr359   2.400       .  S
O356       Zr376   2.381       .  S
O356        H393   0.966       .  S
O357       Zr360   2.401       .  S
O357       Zr376   2.394       .  S
Zr358       O383   2.445       .  S
Zr358       O377   2.460       .  S
Zr358       O385   2.429       .  S
Zr358       O373   2.439       .  S
Zr358       O364   2.405       .  S
Zr358       O365   2.423       .  S
Zr358       O366   2.381       .  S
Zr358       O367   2.378       .  S
Zr359       O378   2.437       .  S
Zr359       O371   2.437       .  S
Zr359       O372   2.419       .  S
Zr359       O365   2.407       .  S
Zr359       O366   2.400       .  S
Zr360       O362   2.435       .  S
Zr360       O384   2.438       .  S
Zr360       O386   2.450       .  S
Zr360       O364   2.382       .  S
Zr360       O367   2.384       .  S
Zr361       O387   2.436       .  S
Zr361       O388   2.437       .  S
Zr361       O363   2.435       .  S
Zr361       O364   2.399       .  S
Zr361       O365   2.403       .  S
O362        H399   0.990       .  S
O363        H394   0.991       .  S
O363        H408   0.990       .  S
O365        H391   0.966       .  S
O366       Zr376   2.382       .  S
O367       Zr376   2.382       .  S
O367        H392   0.965       .  S
C368        C785   1.502       .  S
C369        C841   1.475       .  S
C370        C827   1.501       .  S
O371        H407   0.990       .  S
O372        C374   1.282       .  A
O373        C374   1.283       .  A
C374       C1202   1.481       .  S
O375       Zr376   2.434       .  S
O375        H404   0.990       .  S
Zr376       O379   2.437       .  S
Zr376       O380   2.436       .  S
Zr376       O381   2.403       .  S
O377        C382   1.287       .  A
O378        H395   0.990       .  S
O378        H410   0.990       .  S
O379        H396   0.990       .  S
O380        H400   0.990       .  S
O380        H409   0.990       .  S
O381        C382   1.278       .  A
C382       C1261   1.480       .  S
O383        H402   0.990       .  S
O383        H406   0.991       .  S
O384        H398   0.990       .  S
O384        H405   0.990       .  S
O385        C389   1.285       .  A
O386        C389   1.287       .  A
O387        H397   0.990       .  S
O388        H401   0.990       .  S
C389       C1149   1.498       .  S
N412        C416   1.363       .  A
N412        C413   1.367       .  A
N412        C911   1.455       .  S
C413        C414   1.385       .  A
C413        C771   1.488       .  S
C414        C415   1.367       .  A
C414        H417   1.083       .  S
C415        C416   1.379       .  A
C415        H418   1.082       .  S
C416        C754   1.491       .  S
Zr419       O420   2.443       .  S
Zr419       O421   2.457       .  S
Zr419       O422   2.440       .  S
Zr419       O425   2.425       .  S
Zr419       O427   2.381       .  S
Zr419       O428   2.385       .  S
Zr419       O429   2.414       .  S
Zr419       O430   2.410       .  S
O420        H476   0.990       .  S
O420        H484   0.990       .  S
O421        C441   1.289       .  A
O422        C443   1.285       .  A
O423       Zr433   2.455       .  S
O423        C442   1.289       .  A
O424       Zr432   2.455       .  S
O424        C443   1.289       .  A
O425        C442   1.283       .  A
O426       Zr434   2.408       .  S
O426        C441   1.278       .  A
O427       Zr432   2.404       .  S
O427       Zr434   2.380       .  S
O428       Zr433   2.403       .  S
O428       Zr434   2.381       .  S
O428        H463   0.965       .  S
O429       Zr432   2.406       .  S
O429       Zr449   2.396       .  S
O429        H466   0.965       .  S
O430       Zr433   2.399       .  S
O430       Zr449   2.402       .  S
Zr431       O456   2.446       .  S
Zr431       O450   2.438       .  S
Zr431       O458   2.417       .  S
Zr431       O446   2.404       .  S
Zr431       O437   2.393       .  S
Zr431       O438   2.399       .  S
Zr431       O439   2.377       .  S
Zr431       O440   2.378       .  S
Zr432       O451   2.436       .  S
Zr432       O444   2.433       .  S
Zr432       O445   2.469       .  S
Zr432       O438   2.394       .  S
Zr432       O439   2.391       .  S
Zr433       O435   2.435       .  S
Zr433       O457   2.438       .  S
Zr433       O459   2.480       .  S
Zr433       O437   2.390       .  S
Zr433       O440   2.391       .  S
Zr434       O460   2.435       .  S
Zr434       O461   2.435       .  S
Zr434       O436   2.438       .  S
Zr434       O437   2.392       .  S
Zr434       O438   2.387       .  S
O435        H472   0.990       .  S
O436        H467   0.990       .  S
O436        H481   0.990       .  S
O438        H464   0.965       .  S
O439       Zr449   2.370       .  S
O440       Zr449   2.376       .  S
O440        H465   0.966       .  S
C441        C757   1.499       .  S
C442        C950   1.489       .  S
C443        C740   1.496       .  S
O444        H480   0.990       .  S
O445        C447   1.293       .  A
O446        C447   1.280       .  A
C447       C1485   1.487       .  S
O448       Zr449   2.436       .  S
O448        H477   0.990       .  S
Zr449       O452   2.437       .  S
Zr449       O453   2.438       .  S
Zr449       O454   2.439       .  S
O450        C455   1.285       .  A
O451        H468   0.990       .  S
O451        H483   0.990       .  S
O452        H469   0.990       .  S
O453        H473   0.990       .  S
O453        H482   0.990       .  S
O454        C455   1.285       .  A
C455       C1118   1.490       .  S
O456        H475   0.990       .  S
O456        H479   0.990       .  S
O457        H471   0.990       .  S
O457        H478   0.990       .  S
O458        C462   1.282       .  A
O459        C462   1.295       .  A
O460        H470   0.990       .  S
O461        H474   0.989       .  S
C462       C1443   1.506       .  S
N485        C489   1.367       .  A
N485        C486   1.367       .  A
N485        C813   1.459       .  S
C486        C487   1.382       .  A
C486        C715   1.484       .  S
C487        C488   1.364       .  A
C487        H490   1.083       .  S
C488        C489   1.382       .  A
C488        H491   1.082       .  S
C489        C726   1.496       .  S
N492        C496   1.363       .  A
N492        C493   1.363       .  A
N492       C1034   1.443       .  S
C493        C494   1.382       .  A
C493        C698   1.486       .  S
C494        C495   1.368       .  A
C494        H497   1.083       .  S
C495        C496   1.381       .  A
C495        H498   1.082       .  S
C496        C743   1.486       .  S
Zr499       O500   2.444       .  S
Zr499       O501   2.447       .  S
Zr499       O502   2.440       .  S
Zr499       O505   2.430       .  S
Zr499       O507   2.381       .  S
Zr499       O508   2.383       .  S
Zr499       O509   2.410       .  S
Zr499       O510   2.409       .  S
O500        H556   0.989       .  S
O500        H564   0.991       .  S
O501        C521   1.287       .  A
O502        C523   1.284       .  A
O503       Zr513   2.464       .  S
O503        C522   1.291       .  A
O504       Zr512   2.461       .  S
O504        C523   1.291       .  A
O505        C522   1.284       .  A
O506       Zr514   2.411       .  S
O506        C521   1.280       .  A
O507       Zr512   2.400       .  S
O507       Zr514   2.380       .  S
O508       Zr513   2.399       .  S
O508       Zr514   2.376       .  S
O508        H543   0.966       .  S
O509       Zr512   2.406       .  S
O509       Zr529   2.390       .  S
O509        H546   0.963       .  S
O510       Zr513   2.397       .  S
O510       Zr529   2.401       .  S
Zr511       O536   2.439       .  S
Zr511       O530   2.435       .  S
Zr511       O538   2.424       .  S
Zr511       O526   2.414       .  S
Zr511       O517   2.398       .  S
Zr511       O518   2.401       .  S
Zr511       O519   2.374       .  S
Zr511       O520   2.381       .  S
Zr512       O531   2.437       .  S
Zr512       O524   2.434       .  S
Zr512       O525   2.478       .  S
Zr512       O518   2.393       .  S
Zr512       O519   2.394       .  S
Zr513       O515   2.435       .  S
Zr513       O537   2.440       .  S
Zr513       O539   2.462       .  S
Zr513       O517   2.394       .  S
Zr513       O520   2.396       .  S
Zr514       O540   2.434       .  S
Zr514       O541   2.435       .  S
Zr514       O516   2.438       .  S
Zr514       O517   2.394       .  S
Zr514       O518   2.392       .  S
O515        H552   0.990       .  S
O516        H547   0.990       .  S
O516        H561   0.990       .  S
O518        H544   0.967       .  S
O519       Zr529   2.372       .  S
O520       Zr529   2.378       .  S
O520        H545   0.967       .  S
C521       C1345   1.494       .  S
C522       C1275   1.487       .  S
C523       C1429   1.502       .  S
O524        H560   0.990       .  S
O525        C527   1.293       .  A
O526        C527   1.282       .  A
C527        C799   1.500       .  S
O528       Zr529   2.439       .  S
O528        H557   0.990       .  S
Zr529       O532   2.435       .  S
Zr529       O533   2.438       .  S
Zr529       O534   2.432       .  S
O530        C535   1.285       .  A
O531        H548   0.990       .  S
O531        H563   0.990       .  S
O532        H549   0.990       .  S
O533        H553   0.990       .  S
O533        H562   0.990       .  S
O534        C535   1.285       .  A
C535        C729   1.496       .  S
O536        H555   0.990       .  S
O536        H559   0.990       .  S
O537        H551   0.990       .  S
O537        H558   0.990       .  S
O538        C542   1.281       .  A
O539        C542   1.291       .  A
O540        H550   0.990       .  S
O541        H554   0.990       .  S
C542        C701   1.499       .  S
Zr565       O566   2.439       .  S
Zr565       O567   2.432       .  S
Zr565       O568   2.408       .  S
Zr565       O571   2.392       .  S
Zr565       O573   2.373       .  S
Zr565       O574   2.375       .  S
Zr565       O575   2.399       .  S
Zr565       O576   2.396       .  S
O566        H622   0.991       .  S
O566        H630   0.990       .  S
O567        C587   1.285       .  A
O568        C589   1.281       .  A
O569       Zr579   2.473       .  S
O569        C588   1.291       .  A
O570       Zr578   2.459       .  S
O570        C589   1.289       .  A
O571        C588   1.278       .  A
O572       Zr580   2.447       .  S
O572        C587   1.286       .  A
O573       Zr578   2.397       .  S
O573       Zr580   2.373       .  S
O574       Zr579   2.383       .  S
O574       Zr580   2.371       .  S
O574        H609   0.966       .  S
O575       Zr578   2.400       .  S
O575       Zr595   2.407       .  S
O575        H612   0.965       .  S
O576       Zr579   2.394       .  S
O576       Zr595   2.399       .  S
Zr577       O602   2.442       .  S
Zr577       O596   2.443       .  S
Zr577       O604   2.429       .  S
Zr577       O592   2.397       .  S
Zr577       O583   2.405       .  S
Zr577       O584   2.410       .  S
Zr577       O585   2.373       .  S
Zr577       O586   2.376       .  S
Zr578       O597   2.435       .  S
Zr578       O590   2.436       .  S
Zr578       O591   2.458       .  S
Zr578       O584   2.406       .  S
Zr578       O585   2.390       .  S
Zr579       O581   2.436       .  S
Zr579       O603   2.437       .  S
Zr579       O605   2.453       .  S
Zr579       O583   2.399       .  S
Zr579       O586   2.399       .  S
Zr580       O606   2.434       .  S
Zr580       O607   2.436       .  S
Zr580       O582   2.437       .  S
Zr580       O583   2.409       .  S
Zr580       O584   2.401       .  S
O581        H618   0.990       .  S
O582        H613   0.990       .  S
O582        H627   0.990       .  S
O584        H610   0.966       .  S
O585       Zr595   2.369       .  S
O586       Zr595   2.381       .  S
O586        H611   0.967       .  S
C587       C1527   1.497       .  S
C588       C1356   1.474       .  S
C589       C1177   1.495       .  S
O590        H626   0.990       .  S
O591        C593   1.288       .  A
O592        C593   1.279       .  A
C593        C712   1.468       .  S
O594       Zr595   2.439       .  S
O594        H623   0.990       .  S
Zr595       O598   2.436       .  S
Zr595       O599   2.441       .  S
Zr595       O600   2.440       .  S
O596        C601   1.287       .  A
O597        H614   0.990       .  S
O597        H629   0.990       .  S
O598        H615   0.990       .  S
O599        H619   0.990       .  S
O599        H628   0.990       .  S
O600        C601   1.285       .  A
C601        C866   1.496       .  S
O602        H621   0.990       .  S
O602        H625   0.991       .  S
O603        H617   0.990       .  S
O603        H624   0.990       .  S
O604        C608   1.283       .  A
O605        C608   1.288       .  A
O606        H616   0.989       .  S
O607        H620   0.990       .  S
C608       C1065   1.478       .  S
Zr631       O632   2.442       .  S
Zr631       O633   2.453       .  S
Zr631       O634   2.430       .  S
Zr631       O637   2.415       .  S
Zr631       O639   2.383       .  S
Zr631       O640   2.379       .  S
Zr631       O641   2.409       .  S
Zr631       O642   2.403       .  S
O632        H688   0.990       .  S
O632        H696   0.990       .  S
O633        C653   1.289       .  A
O634        C655   1.284       .  A
O635       Zr645   2.466       .  S
O635        C654   1.290       .  A
O636       Zr644   2.434       .  S
O636        C655   1.286       .  A
O637        C654   1.282       .  A
O638       Zr646   2.439       .  S
O638        C653   1.284       .  A
O639       Zr644   2.405       .  S
O639       Zr646   2.372       .  S
O640       Zr645   2.390       .  S
O640       Zr646   2.376       .  S
O640        H675   0.965       .  S
O641       Zr644   2.404       .  S
O641       Zr661   2.396       .  S
O641        H678   0.965       .  S
O642       Zr645   2.397       .  S
O642       Zr661   2.394       .  S
Zr643       O668   2.442       .  S
Zr643       O662   2.447       .  S
Zr643       O670   2.401       .  S
Zr643       O658   2.403       .  S
Zr643       O649   2.399       .  S
Zr643       O650   2.400       .  S
Zr643       O651   2.371       .  S
Zr643       O652   2.380       .  S
Zr644       O663   2.437       .  S
Zr644       O656   2.434       .  S
Zr644       O657   2.482       .  S
Zr644       O650   2.394       .  S
Zr644       O651   2.382       .  S
Zr645       O647   2.435       .  S
Zr645       O669   2.437       .  S
Zr645       O671   2.457       .  S
Zr645       O649   2.398       .  S
Zr645       O652   2.398       .  S
Zr646       O672   2.435       .  S
Zr646       O673   2.434       .  S
Zr646       O648   2.437       .  S
Zr646       O649   2.400       .  S
Zr646       O650   2.399       .  S
O647        H684   0.990       .  S
O648        H679   0.990       .  S
O648        H693   0.990       .  S
O650        H676   0.965       .  S
O651       Zr661   2.375       .  S
O652       Zr661   2.373       .  S
O652        H677   0.967       .  S
C653       C1006   1.505       .  S
C654        C768   1.479       .  S
C655       C1051   1.480       .  S
O656        H692   0.989       .  S
O657        C659   1.293       .  A
O658        C659   1.278       .  A
C659       C1132   1.483       .  S
O660       Zr661   2.437       .  S
O660        H689   0.990       .  S
Zr661       O664   2.434       .  S
Zr661       O665   2.441       .  S
Zr661       O666   2.422       .  S
O662        C667   1.286       .  A
O663        H680   0.990       .  S
O663        H695   0.990       .  S
O664        H681   0.989       .  S
O665        H685   0.989       .  S
O665        H694   0.990       .  S
O666        C667   1.282       .  A
C667       C1247   1.488       .  S
O668        H687   0.990       .  S
O668        H691   0.991       .  S
O669        H683   0.990       .  S
O669        H690   0.990       .  S
O670        C674   1.281       .  A
O671        C674   1.289       .  A
O672        H682   0.990       .  S
O673        H686   0.990       .  S
C674       C1191   1.484       .  S
C697        C698   1.400       .  A
C697        C702   1.404       .  A
C697        H704   1.083       .  S
C698        C699   1.416       .  A
C699        C700   1.403       .  A
C699        N706   1.433       .  S
C700        C701   1.407       .  A
C700        H705   1.084       .  S
C701        C702   1.425       .  A
C702        N703   1.433       .  S
N703        H707   1.045       .  S
N703        H708   1.042       .  S
N706        H709   1.045       .  S
N706        H710   1.044       .  S
C711        C712   1.400       .  A
C711        C716   1.394       .  A
C711        H718   1.085       .  S
C712        C713   1.415       .  A
C713        C714   1.407       .  A
C713        N720   1.438       .  S
C714        C715   1.407       .  A
C714        H719   1.084       .  S
C715        C716   1.419       .  A
C716        N717   1.433       .  S
N717        H721   1.045       .  S
N717        H722   1.040       .  S
N720        H723   1.045       .  S
N720        H724   1.045       .  S
C725        C726   1.408       .  A
C725        C730   1.406       .  A
C725        H732   1.084       .  S
C726        C727   1.411       .  A
C727        C728   1.405       .  A
C727        N734   1.430       .  S
C728        C729   1.408       .  A
C728        H733   1.083       .  S
C729        C730   1.414       .  A
C730        N731   1.433       .  S
N731        H735   1.046       .  S
N731        H736   1.046       .  S
N734        H737   1.045       .  S
N734        H738   1.045       .  S
C739        C740   1.405       .  A
C739        C744   1.406       .  A
C739        H746   1.084       .  S
C740        C741   1.417       .  A
C741        C742   1.411       .  A
C741        N748   1.432       .  S
C742        C743   1.402       .  A
C742        H747   1.084       .  S
C743        C744   1.410       .  A
C744        N745   1.432       .  S
N745        H749   1.045       .  S
N745        H750   1.046       .  S
N748        H751   1.045       .  S
N748        H752   1.045       .  S
C753        C754   1.401       .  A
C753        C758   1.408       .  A
C753        H760   1.083       .  S
C754        C755   1.417       .  A
C755        C756   1.404       .  A
C755        N762   1.437       .  S
C756        C757   1.406       .  A
C756        H761   1.084       .  S
C757        C758   1.424       .  A
C758        N759   1.439       .  S
N759        H763   1.046       .  S
N759        H764   1.046       .  S
N762        H765   1.044       .  S
N762        H766   1.045       .  S
C767        C768   1.400       .  A
C767        C772   1.401       .  A
C767        H774   1.084       .  S
C768        C769   1.412       .  A
C769        C770   1.415       .  A
C769        N776   1.438       .  S
C770        C771   1.408       .  A
C770        H775   1.084       .  S
C771        C772   1.412       .  A
C772        N773   1.433       .  S
N773        H777   1.046       .  S
N773        H778   1.045       .  S
N776        H779   1.046       .  S
N776        H780   1.046       .  S
C781        C782   1.403       .  A
C781        C786   1.413       .  A
C781        H788   1.084       .  S
C782        C783   1.411       .  A
C783        C784   1.405       .  A
C783        N790   1.438       .  S
C784        C785   1.409       .  A
C784        H789   1.083       .  S
C785        C786   1.420       .  A
C786        N787   1.437       .  S
N787        H791   1.046       .  S
N787        H792   1.046       .  S
N790        H793   1.046       .  S
N790        H794   1.043       .  S
C795        C796   1.397       .  A
C795        C800   1.406       .  A
C795        H802   1.084       .  S
C796        C797   1.419       .  A
C797        C798   1.407       .  A
C797        N804   1.433       .  S
C798        C799   1.405       .  A
C798        H803   1.084       .  S
C799        C800   1.419       .  A
C800        N801   1.432       .  S
N801        H805   1.046       .  S
N801        H806   1.045       .  S
N804        H807   1.046       .  S
N804        H808   1.045       .  S
C809        C810   1.406       .  A
C809        C814   1.404       .  A
C809        H816   1.083       .  S
C810        C811   1.412       .  A
C811        C812   1.407       .  A
C811        N818   1.428       .  S
C812        C813   1.411       .  A
C812        H817   1.083       .  S
C813        C814   1.413       .  A
C814        N815   1.426       .  S
N815        H819   1.046       .  S
N815        H820   1.046       .  S
N818        H821   1.046       .  S
N818        H822   1.046       .  S
C823        C824   1.400       .  A
C823        C828   1.394       .  A
C823        H830   1.082       .  S
C824        C825   1.407       .  A
C825        C826   1.411       .  A
C825        N832   1.437       .  S
C826        C827   1.414       .  A
C826        H831   1.083       .  S
C827        C828   1.422       .  A
C828        N829   1.429       .  S
N829        H833   1.044       .  S
N829        H834   1.044       .  S
N832        H835   1.045       .  S
N832        H836   1.046       .  S
C837        C838   1.403       .  A
C837        C842   1.407       .  A
C837        H844   1.084       .  S
C838        C839   1.413       .  A
C839        C840   1.394       .  A
C839        N846   1.434       .  S
C840        C841   1.399       .  A
C840        H845   1.085       .  S
C841        C842   1.416       .  A
C842        N843   1.431       .  S
N843        H847   1.044       .  S
N843        H848   1.045       .  S
N846        H849   1.046       .  S
N846        H850   1.046       .  S
C851        C852   1.404       .  A
C851        C856   1.393       .  A
C851        H858   1.084       .  S
C852        C853   1.412       .  A
C853        C854   1.412       .  A
C853        N860   1.437       .  S
C854        C855   1.413       .  A
C854        H859   1.083       .  S
C855        C856   1.419       .  A
C856        N857   1.429       .  S
N857        H861   1.043       .  S
N857        H862   1.041       .  S
N860        H863   1.046       .  S
N860        H864   1.046       .  S
C865        C866   1.408       .  A
C865        C870   1.412       .  A
C865        H872   1.083       .  S
C866        C867   1.420       .  A
C867        C868   1.401       .  A
C867        N874   1.432       .  S
C868        C869   1.402       .  A
C868        H873   1.081       .  S
C869        C870   1.411       .  A
C870        N871   1.437       .  S
N871        H875   1.046       .  S
N871        H876   1.045       .  S
N874        H877   1.044       .  S
N874        H878   1.046       .  S
C879        C880   1.402       .  A
C879        C884   1.406       .  A
C879        H886   1.080       .  S
C880        C881   1.419       .  A
C881        C882   1.407       .  A
C881        N888   1.438       .  S
C882        C883   1.407       .  A
C882        H887   1.084       .  S
C883        C884   1.416       .  A
C884        N885   1.432       .  S
N885        H889   1.046       .  S
N885        H890   1.046       .  S
N888        H891   1.045       .  S
N888        H892   1.046       .  S
C893        C894   1.400       .  A
C893        C898   1.403       .  A
C893        H900   1.084       .  S
C894        C895   1.414       .  A
C895        C896   1.399       .  A
C895        N902   1.432       .  S
C896        C897   1.407       .  A
C896        H901   1.083       .  S
C897        C898   1.416       .  A
C898        N899   1.427       .  S
N899        H903   1.046       .  S
N899        H904   1.046       .  S
N902        H905   1.044       .  S
N902        H906   1.045       .  S
C907        C908   1.411       .  A
C907        C912   1.411       .  A
C907        H914   1.083       .  S
C908        C909   1.406       .  A
C909        C910   1.405       .  A
C909        N916   1.427       .  S
C910        C911   1.411       .  A
C910        H915   1.083       .  S
C911        C912   1.411       .  A
C912        N913   1.433       .  S
N913        H917   1.046       .  S
N913        H918   1.045       .  S
N916        H919   1.046       .  S
N916        H920   1.045       .  S
C921        C922   1.407       .  A
C921        C926   1.416       .  A
C921        H928   1.084       .  S
C922        C923   1.410       .  A
C923        C924   1.405       .  A
C923        N930   1.433       .  S
C924        C925   1.411       .  A
C924        H929   1.082       .  S
C925        C926   1.417       .  A
C926        N927   1.432       .  S
N927        H931   1.045       .  S
N927        H932   1.046       .  S
N930        H933   1.045       .  S
N930        H934   1.046       .  S
C935        C936   1.396       .  A
C935        C940   1.404       .  A
C935        H942   1.083       .  S
C936        C937   1.416       .  A
C937        C938   1.413       .  A
C937        N944   1.431       .  S
C938        C939   1.404       .  A
C938        H943   1.082       .  S
C939        C940   1.419       .  A
C940        N941   1.429       .  S
N941        H945   1.046       .  S
N941        H946   1.046       .  S
N944        H947   1.045       .  S
N944        H948   1.046       .  S
C949        C950   1.406       .  A
C949        C954   1.405       .  A
C949        H956   1.084       .  S
C950        C951   1.414       .  A
C951        C952   1.402       .  A
C951        N958   1.433       .  S
C952        C953   1.407       .  A
C952        H957   1.084       .  S
C953        C954   1.418       .  A
C954        N955   1.431       .  S
N955        H959   1.044       .  S
N955        H960   1.043       .  S
N958        H961   1.046       .  S
N958        H962   1.044       .  S
C963        C964   1.406       .  A
C963        C968   1.411       .  A
C963        H970   1.083       .  S
C964        C965   1.409       .  A
C965        C966   1.409       .  A
C965        N972   1.438       .  S
C966        C967   1.409       .  A
C966        H971   1.084       .  S
C967        C968   1.413       .  A
C968        N969   1.437       .  S
N969        H973   1.046       .  S
N969        H974   1.045       .  S
N972        H975   1.045       .  S
N972        H976   1.046       .  S
C977        C978   1.408       .  A
C977        C982   1.412       .  A
C977        H984   1.083       .  S
C978        C979   1.410       .  A
C979        C980   1.404       .  A
C979        N986   1.431       .  S
C980        C981   1.408       .  A
C980        H985   1.084       .  S
C981        C982   1.417       .  A
C982        N983   1.438       .  S
N983        H987   1.046       .  S
N983        H988   1.045       .  S
N986        H989   1.046       .  S
N986        H990   1.046       .  S
C991        C992   1.409       .  A
C991        C996   1.408       .  A
C991        H998   1.083       .  S
C992        C993   1.418       .  A
C993        C994   1.412       .  A
C993       N1000   1.435       .  S
C994        C995   1.406       .  A
C994        H999   1.083       .  S
C995        C996   1.412       .  A
C996        N997   1.437       .  S
N997       H1001   1.045       .  S
N997       H1002   1.043       .  S
N1000      H1003   1.039       .  S
N1000      H1004   1.046       .  S
C1005      C1006   1.410       .  A
C1005      C1010   1.408       .  A
C1005      H1012   1.084       .  S
C1006      C1007   1.425       .  A
C1007      C1008   1.406       .  A
C1007      N1014   1.433       .  S
C1008      C1009   1.401       .  A
C1008      H1013   1.084       .  S
C1009      C1010   1.409       .  A
C1010      N1011   1.432       .  S
N1011      H1015   1.046       .  S
N1011      H1016   1.046       .  S
N1014      H1017   1.044       .  S
N1014      H1018   1.046       .  S
C1019      C1020   1.405       .  A
C1019      C1024   1.409       .  A
C1019      H1026   1.082       .  S
C1020      C1021   1.413       .  A
C1021      C1022   1.405       .  A
C1021      N1028   1.438       .  S
C1022      C1023   1.411       .  A
C1022      H1027   1.083       .  S
C1023      C1024   1.414       .  A
C1024      N1025   1.432       .  S
N1025      H1029   1.046       .  S
N1025      H1030   1.046       .  S
N1028      H1031   1.045       .  S
N1028      H1032   1.046       .  S
C1033      C1034   1.403       .  A
C1033      C1038   1.411       .  A
C1033      H1040   1.082       .  S
C1034      C1035   1.410       .  A
C1035      C1036   1.398       .  A
C1035      N1042   1.432       .  S
C1036      C1037   1.407       .  A
C1036      H1041   1.084       .  S
C1037      C1038   1.418       .  A
C1038      N1039   1.434       .  S
N1039      H1043   1.045       .  S
N1039      H1044   1.040       .  S
N1042      H1045   1.044       .  S
N1042      H1046   1.045       .  S
C1047      C1048   1.405       .  A
C1047      C1052   1.403       .  A
C1047      H1054   1.080       .  S
C1048      C1049   1.418       .  A
C1049      C1050   1.401       .  A
C1049      N1056   1.438       .  S
C1050      C1051   1.404       .  A
C1050      H1055   1.084       .  S
C1051      C1052   1.408       .  A
C1052      N1053   1.433       .  S
N1053      H1057   1.046       .  S
N1053      H1058   1.045       .  S
N1056      H1059   1.046       .  S
N1056      H1060   1.044       .  S
C1061      C1062   1.405       .  A
C1061      C1066   1.409       .  A
C1061      H1068   1.084       .  S
C1062      C1063   1.412       .  A
C1063      C1064   1.401       .  A
C1063      N1070   1.433       .  S
C1064      C1065   1.399       .  A
C1064      H1069   1.084       .  S
C1065      C1066   1.418       .  A
C1066      N1067   1.438       .  S
N1067      H1071   1.046       .  S
N1067      H1072   1.044       .  S
N1070      H1073   1.046       .  S
N1070      H1074   1.045       .  S
C1075      C1076   1.406       .  A
C1075      C1080   1.400       .  A
C1075      H1082   1.082       .  S
C1076      C1077   1.402       .  A
C1077      C1078   1.405       .  A
C1077      N1084   1.430       .  S
C1078      C1079   1.412       .  A
C1078      H1083   1.083       .  S
C1079      C1080   1.416       .  A
C1080      N1081   1.437       .  S
N1081      H1085   1.046       .  S
N1081      H1086   1.041       .  S
N1084      H1087   1.045       .  S
N1084      H1088   1.046       .  S
C1089      C1090   1.395       .  A
C1089      C1094   1.401       .  A
C1089      H1096   1.084       .  S
C1090      C1091   1.410       .  A
C1091      C1092   1.400       .  A
C1091      N1098   1.432       .  S
C1092      C1093   1.400       .  A
C1092      H1097   1.084       .  S
C1093      C1094   1.416       .  A
C1094      N1095   1.432       .  S
N1095      H1099   1.046       .  S
N1095      H1100   1.046       .  S
N1098      H1101   1.046       .  S
N1098      H1102   1.045       .  S
C1103      C1104   1.403       .  A
C1103      C1108   1.403       .  A
C1103      H1110   1.083       .  S
C1104      C1105   1.406       .  A
C1105      C1106   1.396       .  A
C1105      N1112   1.432       .  S
C1106      C1107   1.411       .  A
C1106      H1111   1.084       .  S
C1107      C1108   1.411       .  A
C1108      N1109   1.432       .  S
N1109      H1113   1.045       .  S
N1109      H1114   1.046       .  S
N1112      H1115   1.045       .  S
N1112      H1116   1.044       .  S
C1117      C1118   1.404       .  A
C1117      C1122   1.407       .  A
C1117      H1124   1.084       .  S
C1118      C1119   1.419       .  A
C1119      C1120   1.406       .  A
C1119      N1126   1.433       .  S
C1120      C1121   1.405       .  A
C1120      H1125   1.084       .  S
C1121      C1122   1.413       .  A
C1122      N1123   1.438   1_655  S
N1123      H1127   1.046       .  S
N1123      H1128   1.045       .  S
N1126      H1129   1.046       .  S
N1126      H1130   1.044       .  S
C1131      C1132   1.404       .  A
C1131      C1136   1.408       .  A
C1131      H1138   1.084       .  S
C1132      C1133   1.413       .  A
C1133      C1134   1.406       .  A
C1133      N1140   1.432       .  S
C1134      C1135   1.406       .  A
C1134      H1139   1.083       .  S
C1135      C1136   1.419       .  A
C1136      N1137   1.437       .  S
N1137      H1141   1.046       .  S
N1137      H1142   1.044       .  S
N1140      H1143   1.046       .  S
N1140      H1144   1.045       .  S
C1145      C1146   1.406       .  A
C1145      C1150   1.413       .  A
C1145      H1152   1.084       .  S
C1146      C1147   1.421       .  A
C1147      C1148   1.397       .  A
C1147      N1154   1.440   1_655  S
C1148      C1149   1.405       .  A
C1148      H1153   1.083       .  S
C1149      C1150   1.414       .  A
C1150      N1151   1.432       .  S
N1151      H1155   1.046       .  S
N1151      H1156   1.046       .  S
N1154      H1157   1.039       .  S
N1154      H1158   1.046       .  S
C1159      C1160   1.402       .  A
C1159      C1164   1.400       .  A
C1159      H1166   1.081       .  S
C1160      C1161   1.419       .  A
C1161      C1162   1.405       .  A
C1161      N1168   1.437       .  S
C1162      C1163   1.406       .  A
C1162      H1167   1.084       .  S
C1163      C1164   1.422       .  A
C1164      N1165   1.434       .  S
N1165      H1169   1.042       .  S
N1165      H1170   1.046       .  S
N1168      H1171   1.044       .  S
N1168      H1172   1.045       .  S
C1173      C1174   1.404       .  A
C1173      C1178   1.402       .  A
C1173      H1180   1.085       .  S
C1174      C1175   1.406       .  A
C1175      C1176   1.398       .  A
C1175      N1182   1.437       .  S
C1176      C1177   1.412       .  A
C1176      H1181   1.084       .  S
C1177      C1178   1.419       .  A
C1178      N1179   1.432       .  S
N1179      H1183   1.045       .  S
N1179      H1184   1.045       .  S
N1182      H1185   1.044       .  S
N1182      H1186   1.046       .  S
C1187      C1188   1.405       .  A
C1187      C1192   1.407       .  A
C1187      H1194   1.084   1_545  S
C1188      C1189   1.399       .  A
C1189      C1190   1.402       .  A
C1189      N1196   1.432       .  S
C1190      C1191   1.411       .  A
C1190      H1195   1.084       .  S
C1191      C1192   1.412       .  A
C1192      N1193   1.437       .  S
N1193      H1197   1.045       .  S
N1193      H1198   1.046       .  S
N1196      H1199   1.045       .  S
N1196      H1200   1.046       .  S
C1201      C1202   1.403       .  A
C1201      C1206   1.397       .  A
C1201      H1208   1.084       .  S
C1202      C1203   1.411       .  A
C1203      C1204   1.400       .  A
C1203      N1210   1.433       .  S
C1204      C1205   1.405       .  A
C1204      H1209   1.084       .  S
C1205      C1206   1.416       .  A
C1206      N1207   1.429       .  S
N1207      H1211   1.039       .  S
N1207      H1212   1.043       .  S
N1210      H1213   1.045       .  S
N1210      H1214   1.046       .  S
C1215      C1216   1.404       .  A
C1215      C1220   1.402       .  A
C1215      H1222   1.084       .  S
C1216      C1217   1.412       .  A
C1217      C1218   1.397       .  A
C1217      N1224   1.430       .  S
C1218      C1219   1.400       .  A
C1218      H1223   1.085       .  S
C1219      C1220   1.415       .  A
C1220      N1221   1.432       .  S
N1221      H1225   1.045       .  S
N1221      H1226   1.044       .  S
N1224      H1227   1.046       .  S
N1224      H1228   1.046       .  S
C1229      C1230   1.406       .  A
C1229      C1234   1.414       .  A
C1229      H1236   1.084       .  S
C1230      C1231   1.409       .  A
C1231      C1232   1.408       .  A
C1231      N1238   1.438       .  S
C1232      C1233   1.409       .  A
C1232      H1237   1.084       .  S
C1233      C1234   1.414       .  A
C1234      N1235   1.437       .  S
N1235      H1239   1.046       .  S
N1235      H1240   1.045       .  S
N1238      H1241   1.045       .  S
N1238      H1242   1.045   1_545  S
C1243      C1244   1.402       .  A
C1243      C1248   1.409       .  A
C1243      H1250   1.084       .  S
C1244      C1245   1.416       .  A
C1245      C1246   1.403       .  A
C1245      N1252   1.432       .  S
C1246      C1247   1.404       .  A
C1246      H1251   1.084       .  S
C1247      C1248   1.414       .  A
C1248      N1249   1.437       .  S
N1249      H1253   1.045       .  S
N1249      H1254   1.046       .  S
N1252      H1255   1.044       .  S
N1252      H1256   1.045       .  S
C1257      C1258   1.406       .  A
C1257      C1262   1.407       .  A
C1257      H1264   1.084       .  S
C1258      C1259   1.409       .  A
C1259      C1260   1.400       .  A
C1259      N1266   1.432       .  S
C1260      C1261   1.406       .  A
C1260      H1265   1.084       .  S
C1261      C1262   1.412       .  A
C1262      N1263   1.438       .  S
N1263      H1267   1.046       .  S
N1263      H1268   1.045       .  S
N1266      H1269   1.046       .  S
N1266      H1270   1.045       .  S
C1271      C1272   1.404       .  A
C1271      C1276   1.406       .  A
C1271      H1278   1.081       .  S
C1272      C1273   1.420       .  A
C1273      C1274   1.408       .  A
C1273      N1280   1.438       .  S
C1274      C1275   1.403       .  A
C1274      H1279   1.084       .  S
C1275      C1276   1.410       .  A
C1276      N1277   1.432       .  S
N1277      H1281   1.045       .  S
N1277      H1282   1.046       .  S
N1280      H1283   1.044       .  S
N1280      H1284   1.046       .  S
C1285      C1286   1.401       .  A
C1285      C1290   1.405       .  A
C1285      H1292   1.081       .  S
C1286      C1287   1.422   1_556  A
C1287      C1288   1.407       .  A
C1287      N1294   1.431       .  S
C1288      C1289   1.401       .  A
C1288      H1293   1.082       .  S
C1289      C1290   1.413   1_554  A
C1290      N1291   1.431       .  S
N1291      H1295   1.045       .  S
N1291      H1296   1.046       .  S
N1294      H1297   1.044   1_454  S
N1294      H1298   1.045   1_554  S
C1299      C1300   1.403       .  A
C1299      C1304   1.406       .  A
C1299      H1306   1.083       .  S
C1300      C1301   1.418       .  A
C1301      C1302   1.405       .  A
C1301      N1308   1.437       .  S
C1302      C1303   1.408       .  A
C1302      H1307   1.083       .  S
C1303      C1304   1.425       .  A
C1304      N1305   1.433       .  S
N1305      H1309   1.043       .  S
N1305      H1310   1.045       .  S
N1308      H1311   1.044       .  S
N1308      H1312   1.045       .  S
C1313      C1314   1.406       .  A
C1313      C1318   1.411       .  A
C1313      H1320   1.084       .  S
C1314      C1315   1.413       .  A
C1315      C1316   1.395       .  A
C1315      N1322   1.434       .  S
C1316      C1317   1.408       .  A
C1316      H1321   1.083       .  S
C1317      C1318   1.422       .  A
C1318      N1319   1.432       .  S
N1319      H1323   1.044       .  S
N1319      H1324   1.046       .  S
N1322      H1325   1.045       .  S
N1322      H1326   1.043       .  S
C1327      C1328   1.406       .  A
C1327      C1332   1.400   1_556  A
C1327      H1334   1.084       .  S
C1328      C1329   1.415       .  A
C1329      C1330   1.402   1_556  A
C1329      N1336   1.429       .  S
C1330      C1331   1.407       .  A
C1330      H1335   1.083       .  S
C1331      C1332   1.406       .  A
C1332      N1333   1.428       .  S
N1333      H1337   1.046       .  S
N1333      H1338   1.046       .  S
N1336      H1339   1.041   1_455  S
N1336      H1340   1.043       .  S
C1341      C1342   1.407       .  A
C1341      C1346   1.405       .  A
C1341      H1348   1.084       .  S
C1342      C1343   1.410       .  A
C1343      C1344   1.402       .  A
C1343      N1350   1.431   1_655  S
C1344      C1345   1.410       .  A
C1344      H1349   1.083       .  S
C1345      C1346   1.412       .  A
C1346      N1347   1.432       .  S
N1347      H1351   1.045       .  S
N1347      H1352   1.046       .  S
N1350      H1353   1.046   1_455  S
N1350      H1354   1.046       .  S
C1355      C1356   1.402       .  A
C1355      C1360   1.400       .  A
C1355      H1362   1.085       .  S
C1356      C1357   1.413       .  A
C1357      C1358   1.411       .  A
C1357      N1364   1.438       .  S
C1358      C1359   1.404       .  A
C1358      H1363   1.084       .  S
C1359      C1360   1.411       .  A
C1360      N1361   1.433       .  S
N1361      H1365   1.046       .  S
N1361      H1366   1.045       .  S
N1364      H1367   1.046       .  S
N1364      H1368   1.046       .  S
C1369      C1370   1.406       .  A
C1369      C1374   1.411       .  A
C1369      H1376   1.080       .  S
C1370      C1371   1.414       .  A
C1371      C1372   1.400       .  A
C1371      N1378   1.432       .  S
C1372      C1373   1.404   1_455  A
C1372      H1377   1.083   1_455  S
C1373      C1374   1.411   1_655  A
C1374      N1375   1.427   1_455  S
N1375      H1379   1.045   1_665  S
N1375      H1380   1.045   1_655  S
N1378      H1381   1.046       .  S
N1378      H1382   1.045       .  S
C1383      C1384   1.404       .  A
C1383      C1388   1.402       .  A
C1383      H1390   1.084       .  S
C1384      C1385   1.411       .  A
C1385      C1386   1.405       .  A
C1385      N1392   1.430       .  S
C1386      C1387   1.402       .  A
C1386      H1391   1.084       .  S
C1387      C1388   1.412       .  A
C1388      N1389   1.438       .  S
N1389      H1393   1.046       .  S
N1389      H1394   1.045       .  S
N1392      H1395   1.045       .  S
N1392      H1396   1.045       .  S
C1397      C1398   1.402       .  A
C1397      C1402   1.402       .  A
C1397      H1404   1.084       .  S
C1398      C1399   1.413       .  A
C1399      C1400   1.403       .  A
C1399      N1406   1.430   1_545  S
C1400      C1401   1.399       .  A
C1400      H1405   1.084       .  S
C1401      C1402   1.410       .  A
C1402      N1403   1.433       .  S
N1403      H1407   1.046       .  S
N1403      H1408   1.046       .  S
N1406      H1409   1.046       .  S
N1406      H1410   1.046       .  S
C1411      C1412   1.400   1_455  A
C1411      C1416   1.407       .  A
C1411      H1418   1.082   1_455  S
C1412      C1413   1.414   1_655  A
C1413      C1414   1.411       .  A
C1413      N1420   1.436       .  S
C1414      C1415   1.398       .  A
C1414      H1419   1.083       .  S
C1415      C1416   1.416       .  A
C1416      N1417   1.438       .  S
N1417      H1421   1.046       .  S
N1417      H1422   1.044       .  S
N1420      H1423   1.045   1_455  S
N1420      H1424   1.046       .  S
C1425      C1426   1.402       .  A
C1425      C1430   1.405       .  A
C1425      H1432   1.081       .  S
C1426      C1427   1.414       .  A
C1427      C1428   1.409       .  A
C1427      N1434   1.438       .  S
C1428      C1429   1.408       .  A
C1428      H1433   1.083       .  S
C1429      C1430   1.425       .  A
C1430      N1431   1.433       .  S
N1431      H1435   1.041       .  S
N1431      H1436   1.045       .  S
N1434      H1437   1.045       .  S
N1434      H1438   1.046       .  S
C1439      C1440   1.401       .  A
C1439      C1444   1.410       .  A
C1439      H1446   1.078       .  S
C1440      C1441   1.417       .  A
C1441      C1442   1.411       .  A
C1441      N1448   1.433       .  S
C1442      C1443   1.406       .  A
C1442      H1447   1.083       .  S
C1443      C1444   1.421       .  A
C1444      N1445   1.433       .  S
N1445      H1449   1.046       .  S
N1445      H1450   1.046       .  S
N1448      H1451   1.046       .  S
N1448      H1452   1.045       .  S
C1453      C1454   1.406   1_565  A
C1453      C1458   1.402       .  A
C1453      H1460   1.083       .  S
C1454      C1455   1.407   1_556  A
C1455      C1456   1.412   1_545  A
C1455      N1462   1.430       .  S
C1456      C1457   1.412   1_554  A
C1456      H1461   1.083       .  S
C1457      C1458   1.414       .  A
C1458      N1459   1.428       .  S
N1459      H1463   1.039       .  S
N1459      H1464   1.043   1_556  S
N1462      H1465   1.045       .  S
N1462      H1466   1.045       .  S
C1467      C1468   1.408       .  A
C1467      C1472   1.405       .  A
C1467      H1474   1.083       .  S
C1468      C1469   1.414       .  A
C1469      C1470   1.407       .  A
C1469      N1476   1.432       .  S
C1470      C1471   1.407       .  A
C1470      H1475   1.084       .  S
C1471      C1472   1.410       .  A
C1472      N1473   1.430       .  S
N1473      H1477   1.045       .  S
N1473      H1478   1.045       .  S
N1476      H1479   1.046       .  S
N1476      H1480   1.045       .  S
C1481      C1482   1.397       .  A
C1481      C1486   1.404       .  A
C1481      H1488   1.084       .  S
C1482      C1483   1.417       .  A
C1483      C1484   1.400       .  A
C1483      N1490   1.432       .  S
C1484      C1485   1.401       .  A
C1484      H1489   1.084       .  S
C1485      C1486   1.417       .  A
C1486      N1487   1.432       .  S
N1487      H1491   1.046       .  S
N1487      H1492   1.046       .  S
N1490      H1493   1.044       .  S
N1490      H1494   1.045       .  S
C1495      C1496   1.399       .  A
C1495      C1500   1.404       .  A
C1495      H1502   1.082       .  S
C1496      C1497   1.418       .  A
C1497      C1498   1.407       .  A
C1497      N1504   1.431       .  S
C1498      C1499   1.400       .  A
C1498      H1503   1.082       .  S
C1499      C1500   1.421       .  A
C1500      N1501   1.432       .  S
N1501      H1505   1.044       .  S
N1501      H1506   1.045   1_554  S
N1504      H1507   1.045       .  S
N1504      H1508   1.044   1_554  S
C1509      C1510   1.402       .  A
C1509      C1514   1.409       .  A
C1509      H1516   1.082       .  S
C1510      C1511   1.418       .  A
C1511      C1512   1.406       .  A
C1511      N1518   1.439       .  S
C1512      C1513   1.410       .  A
C1512      H1517   1.084       .  S
C1513      C1514   1.418       .  A
C1514      N1515   1.432       .  S
N1515      H1519   1.046       .  S
N1515      H1520   1.046       .  S
N1518      H1521   1.046       .  S
N1518      H1522   1.043       .  S
C1523      C1524   1.403       .  A
C1523      C1528   1.405       .  A
C1523      H1530   1.083       .  S
C1524      C1525   1.417       .  A
C1525      C1526   1.403       .  A
C1525      N1532   1.438       .  S
C1526      C1527   1.407       .  A
C1526      H1531   1.084       .  S
C1527      C1528   1.421       .  A
C1528      N1529   1.432       .  S
N1529      H1533   1.045       .  S
N1529      H1534   1.045       .  S
N1532      H1535   1.044       .  S
N1532      H1536   1.045       .  S
