geometry optimzed in LAMMPS
_audit_creation_date              2020-11-30 
_audit_creation_method            'lammps2cif' 
_symmetry_space_group_name_H-M    'P1' 
_symmetry_Int_Tables_number       1 
_symmetry_cell_setting            triclinic 
loop_ 
_symmetry_equiv_pos_as_xyz 
  x,y,z 
_cell_length_a                    26.16459599 
_cell_length_b                    26.1695423641755 
_cell_length_c                    69.67685486049136 
_cell_angle_alpha                 90.05172048807432 
_cell_angle_beta                  90.09393989870621 
_cell_angle_gamma                 89.8891871454843 
loop_ 
_atom_site_label 
_atom_site_type_symbol 
_atom_site_fract_x 
_atom_site_fract_y 
_atom_site_fract_z 
_atom_site_charge 
O1          O  0.45001145  0.51167822  0.66066949    -0.72200
O2          O  0.45332009  0.01211608  0.71557954    -0.72400
O3          O  0.45255454  0.08236987  0.68774620    -0.72200
O4          O  0.45166271  0.43727002  0.68732138    -0.72200
O5          O  0.04073280  0.42614070  0.68739591    -0.72200
O6          O  0.04065481  0.07046332  0.68877590    -0.72200
O7          O  0.03897064  0.49749336  0.71506737    -0.72200
O8          O  0.04180378  0.99688219  0.66191631    -0.72400
V9          V  0.45426965  0.00997031  0.68830310     1.35200
V10         V  0.03829183  0.99807687  0.68921734     1.35200
C11         C  0.00097678  0.99431596  0.65219943     0.77100
C12         C  0.99714138  0.49799331  0.72410259     0.77100
C13         C  0.49406026  0.10681925  0.68693689     0.77000
C14         C  0.49321707  0.41253762  0.68714619     0.77000
O15         O  0.04364679  0.24691966  0.66113232    -0.72200
O16         O  0.04012637  0.24951833  0.71538994    -0.72400
O17         O  0.04145766  0.17559733  0.68855713    -0.72200
O18         O  0.04166717  0.32074679  0.68782801    -0.72200
O19         O  0.45194375  0.33208813  0.68777940    -0.72200
O20         O  0.45238301  0.18721877  0.68677290    -0.72200
O21         O  0.45406467  0.25835919  0.71456088    -0.72200
O22         O  0.45050285  0.26115299  0.66005201    -0.72400
V23         V  0.04009365  0.24816047  0.68822054     1.35200
V24         V  0.45383354  0.25967167  0.68727999     1.35200
C25         C  0.00310189  0.24774660  0.65131005     0.77100
C26         C  0.49622275  0.25949209  0.72342199     0.77100
C27         C  0.49398974  0.16263326  0.68678993     0.77000
C28         C  0.49335898  0.35668275  0.68701409     0.77000
O29         O  0.22692697  0.49489290  0.65842799    -0.72200
O30         O  0.21076532  0.99969561  0.71438589    -0.72400
O31         O  0.21807651  0.06809406  0.68613775    -0.72200
O32         O  0.22023637  0.42244921  0.68540037    -0.72200
O33         O  0.30291021  0.42232679  0.68870910    -0.72200
O34         O  0.30090390  0.06750555  0.68869039    -0.72200
O35         O  0.29622856  0.49555469  0.71564504    -0.72200
O36         O  0.30683916  0.99087261  0.66282387    -0.72400
V37         V  0.22169185  0.49472950  0.68567486     1.35200
V38         V  0.30119408  0.49473857  0.68841606     1.35200
C39         C  0.27050779  0.49303450  0.65056010     0.77100
C40         C  0.25270522  0.49460079  0.72347504     0.77100
C41         C  0.25963140  0.09239838  0.68735394     0.77000
C42         C  0.26159506  0.39787969  0.68693428     0.77000
O43         O  0.30774187  0.24291657  0.66126416    -0.72200
O44         O  0.29616324  0.24740201  0.71559315    -0.72400
O45         O  0.30142975  0.17253442  0.68898550    -0.72200
O46         O  0.30272723  0.31734284  0.68783015    -0.72200
O47         O  0.21980767  0.31803751  0.68558741    -0.72200
O48         O  0.21866834  0.17322105  0.68611467    -0.72200
O49         O  0.21328819  0.24722735  0.71311316    -0.72200
O50         O  0.22518896  0.24473963  0.65868719    -0.72400
V51         V  0.30039551  0.24499496  0.68837705     1.35200
V52         V  0.22083482  0.24570439  0.68592941     1.35200
C53         C  0.26851654  0.24316821  0.65064074     0.77100
C54         C  0.25281133  0.24895309  0.72354387     0.77100
C55         C  0.25992064  0.14828531  0.68745379     0.77000
C56         C  0.26142502  0.34220092  0.68673560     0.77000
O57         O  0.49480863  0.44721507  0.80722100    -0.72200
O58         O  0.99721893  0.45268557  0.75336339    -0.72400
O59         O  0.06828709  0.44725038  0.78107171    -0.72200
O60         O  0.42431006  0.45297639  0.77949667    -0.72200
O61         O  0.42044246  0.07734317  0.77968212    -0.72200
O62         O  0.06586477  0.07244788  0.77883042    -0.72200
O63         O  0.49309829  0.06748933  0.75257598    -0.72200
O64         O  0.99445110  0.08591901  0.80620915    -0.72400
V65         V  0.99555645  0.45010302  0.78055971     1.35200
V66         V  0.99351947  0.07171641  0.77930623     1.35200
C67         C  0.99071306  0.04918563  0.81793773     0.77100
C68         C  0.99653741  0.49549904  0.74503940     0.77100
C69         C  0.09328368  0.48858651  0.78127597     0.77000
C70         C  0.39913600  0.49390919  0.78131564     0.77000
O71         O  0.49725689  0.22448359  0.80862522    -0.72200
O72         O  0.99865726  0.21360330  0.75532771    -0.72400
O73         O  0.07017041  0.21822317  0.78302385    -0.72200
O74         O  0.42594504  0.22146962  0.78097482    -0.72200
O75         O  0.42523333  0.30457435  0.78073881    -0.72200
O76         O  0.07068100  0.30088174  0.77988964    -0.72200
O77         O  0.49665165  0.30282578  0.75316908    -0.72200
O78         O  0.99970544  0.30701343  0.80754578    -0.72400
V79         V  0.49823071  0.22357532  0.78132649     1.35200
V80         V  0.49783430  0.30337540  0.78040517     1.35200
C81         C  0.49850407  0.26684138  0.81739748     0.77100
C82         C  0.49749387  0.26063739  0.74437695     0.77100
C83         C  0.09506215  0.25934484  0.78139274     0.77000
C84         C  0.40102595  0.26279807  0.78082848     0.77000
O85         O  0.24787791  0.44764086  0.80790358    -0.72200
O86         O  0.24682660  0.45120454  0.75327554    -0.72400
O87         O  0.31963063  0.45095526  0.78037819    -0.72200
O88         O  0.17456050  0.44773746  0.78085018    -0.72200
O89         O  0.17012856  0.07240477  0.77796171    -0.72200
O90         O  0.31496485  0.07572183  0.77911937    -0.72200
O91         O  0.24475318  0.05932770  0.75169408    -0.72200
O92         O  0.24027443  0.08835162  0.80538326    -0.72400
V93         V  0.24714919  0.45097328  0.78060746     1.35200
V94         V  0.24251232  0.07237256  0.77862656     1.35200
C95         C  0.24240035  0.05243921  0.81752181     0.77100
C96         C  0.24540001  0.01370608  0.74562276     0.77100
C97         C  0.34035916  0.03514457  0.78156706     0.77000
C98         C  0.14620256  0.03172029  0.78165806     0.77000
O99         O  0.25171736  0.22403982  0.80898102    -0.72200
O100        O  0.24697311  0.21363547  0.75472430    -0.72400
O101        O  0.32134854  0.22007328  0.78109318    -0.72200
O102        O  0.17621447  0.21818458  0.78274706    -0.72200
O103        O  0.17515328  0.30075915  0.77933848    -0.72200
O104        O  0.31994107  0.30314435  0.78040171    -0.72200
O105        O  0.24928476  0.29650763  0.75255418    -0.72200
O106        O  0.24617320  0.30661475  0.80714432    -0.72400
V107        V  0.24887911  0.22059281  0.78184880     1.35200
V108        V  0.24755704  0.30018940  0.77987383     1.35200
C109        C  0.24967289  0.26680756  0.81737089     0.77100
C110        C  0.24892527  0.25322804  0.74442949     0.77100
C111        C  0.34521357  0.26201416  0.78076704     0.77000
C112        C  0.15104892  0.25928982  0.78116725     0.77000
O113        O  0.46414160  0.99691159  0.30816651    -0.72200
O114        O  0.46145820  0.49527676  0.25379611    -0.72400
O115        O  0.46044073  0.42516594  0.28183349    -0.72200
O116        O  0.46120620  0.06939940  0.28096188    -0.72200
O117        O  0.04768717  0.06862713  0.28061776    -0.72200
O118        O  0.05076656  0.42241974  0.28089388    -0.72200
O119        O  0.04461533  0.99889190  0.25262433    -0.72200
O120        O  0.05440569  0.49579808  0.30778650    -0.72400
V121        V  0.46360035  0.99694223  0.28083917     1.35200
V122        V  0.04681955  0.99631320  0.27994122     1.35200
C123        C  0.50624333  0.99570613  0.31713982     0.77100
C124        C  0.50046012  0.00178288  0.24392360     0.77100
C125        C  0.50163828  0.39993605  0.28141831     0.77000
C126        C  0.50253713  0.09426531  0.28108141     0.77000
O127        O  0.04813438  0.24448470  0.30865824    -0.72200
O128        O  0.04834535  0.24613046  0.25412727    -0.72400
O129        O  0.04929047  0.31754574  0.28164887    -0.72200
O130        O  0.04762574  0.17288256  0.28117781    -0.72200
O131        O  0.46045123  0.17453103  0.28001368    -0.72200
O132        O  0.45969421  0.31957738  0.28138101    -0.72200
O133        O  0.46169497  0.24914838  0.25334039    -0.72200
O134        O  0.45844702  0.24501436  0.30790960    -0.72400
V135        V  0.04672571  0.24521807  0.28139987     1.35200
V136        V  0.46164788  0.24702911  0.28065167     1.35200
C137        C  0.49939499  0.24669141  0.31754801     0.77100
C138        C  0.50381220  0.24884737  0.24447314     0.77100
C139        C  0.50124242  0.34413816  0.28133973     0.77000
C140        C  0.50209998  0.15011827  0.28094174     0.77000
O141        O  0.23481378  0.99498857  0.30920834    -0.72200
O142        O  0.22234743  0.49410120  0.25525245    -0.72400
O143        O  0.23068231  0.42366817  0.28301627    -0.72200
O144        O  0.22724598  0.06907537  0.28259237    -0.72200
O145        O  0.30997580  0.06835202  0.27967977    -0.72200
O146        O  0.31304953  0.42329561  0.27888001    -0.72200
O147        O  0.30098976  0.99942690  0.25158325    -0.72200
O148        O  0.32124444  0.49515121  0.30617054    -0.72400
V149        V  0.22830061  0.99653902  0.28201186     1.35200
V150        V  0.30763619  0.99602314  0.27881062     1.35200
C151        C  0.27865635  0.99339658  0.31691900     0.77100
C152        C  0.25693360  0.00158260  0.24409435     0.77100
C153        C  0.27182609  0.39891916  0.28105027     0.77000
C154        C  0.26879202  0.09328738  0.28107179     0.77000
O155        O  0.31719959  0.24565884  0.30692081    -0.72200
O156        O  0.30634798  0.24572721  0.25246664    -0.72400
O157        O  0.31263310  0.31809715  0.27961422    -0.72200
O158        O  0.31104347  0.17317245  0.27982693    -0.72200
O159        O  0.22803185  0.17417842  0.28131333    -0.72200
O160        O  0.22992747  0.31898798  0.28265674    -0.72200
O161        O  0.22349302  0.24883847  0.25471857    -0.72200
O162        O  0.23443654  0.24417860  0.30905033    -0.72400
V163        V  0.31021642  0.24566040  0.27973276     1.35200
V164        V  0.23059280  0.24656880  0.28187934     1.35200
C165        C  0.27754436  0.24364339  0.31725300     0.77100
C166        C  0.26311366  0.24813840  0.24438945     0.77100
C167        C  0.27150686  0.34310609  0.28115414     0.77000
C168        C  0.26929368  0.14910953  0.28074369     0.77000
O169        O  0.45693600  0.50789290  0.40975438    -0.72200
O170        O  0.45680205  0.00537086  0.46407535    -0.72400
O171        O  0.45872306  0.07840182  0.43705749    -0.72200
O172        O  0.45491420  0.43408957  0.43654300    -0.72200
O173        O  0.05383168  0.42530606  0.43765304    -0.72200
O174        O  0.05334405  0.07051088  0.43827364    -0.72200
O175        O  0.05424151  0.49776828  0.46504494    -0.72200
O176        O  0.05337427  0.99846234  0.41067750    -0.72400
V177        V  0.46067033  0.00600786  0.43678662     1.35200
V178        V  0.05181404  0.99811312  0.43810811     1.35200
C179        C  0.50319998  0.00546836  0.40053967     0.77100
C180        C  0.01133472  0.99796855  0.47469755     0.77100
C181        C  0.50012922  0.10311811  0.43716270     0.77000
C182        C  0.49630866  0.40910176  0.43711091     0.77000
O183        O  0.05355405  0.24672585  0.41080132    -0.72200
O184        O  0.05319979  0.24850449  0.46530958    -0.72400
O185        O  0.05336594  0.17532141  0.43831394    -0.72200
O186        O  0.05357135  0.32023549  0.43778416    -0.72200
O187        O  0.45537685  0.32809572  0.43612809    -0.72200
O188        O  0.45765899  0.18306595  0.43726755    -0.72200
O189        O  0.45490076  0.25709553  0.46393127    -0.72200
O190        O  0.45819711  0.25339825  0.40947170    -0.72400
V191        V  0.05181966  0.24775044  0.43804746     1.35200
V192        V  0.45814576  0.25549854  0.43671323     1.35200
C193        C  0.50014735  0.25490213  0.40051413     0.77100
C194        C  0.49583107  0.25676124  0.47359355     0.77100
C195        C  0.49955712  0.15899258  0.43721632     0.77000
C196        C  0.49656068  0.35317179  0.43694361     0.77000
O197        O  0.24980676  0.48888943  0.40929419    -0.72200
O198        O  0.24965827  0.98519616  0.46442836    -0.72400
O199        O  0.24985159  0.05891341  0.43757049    -0.72200
O200        O  0.24921972  0.41394057  0.43577973    -0.72200
O201        O  0.33229165  0.41373405  0.43659270    -0.72200
O202        O  0.33293998  0.05845350  0.43711696    -0.72200
O203        O  0.33167599  0.48574645  0.46407223    -0.72200
O204        O  0.33191814  0.98643032  0.40958159    -0.72400
V205        V  0.25089340  0.48648032  0.43646408     1.35200
V206        V  0.33071346  0.48621991  0.43671223     1.35200
C207        C  0.29128443  0.48966387  0.40002928     0.77100
C208        C  0.28981056  0.48478243  0.47313360     0.77100
C209        C  0.29148638  0.08326666  0.43721557     0.77000
C210        C  0.29075301  0.38922598  0.43622584     0.77000
O211        O  0.24995626  0.23502136  0.40934611    -0.72200
O212        O  0.24931705  0.23682005  0.46373815    -0.72400
O213        O  0.24938755  0.30861577  0.43612661    -0.72200
O214        O  0.24993274  0.16366584  0.43695314    -0.72200
O215        O  0.33302430  0.16374371  0.43641344    -0.72200
O216        O  0.33245083  0.30877080  0.43708536    -0.72200
O217        O  0.33238378  0.23506094  0.46410926    -0.72200
O218        O  0.33290067  0.23766971  0.40941877    -0.72400
V219        V  0.25130005  0.23607731  0.43654742     1.35200
V220        V  0.33112119  0.23628581  0.43674859     1.35200
C221        C  0.29139395  0.23689198  0.40007977     0.77100
C222        C  0.29055339  0.23539389  0.47318955     0.77100
C223        C  0.29084305  0.33330180  0.43646362     0.77000
C224        C  0.29153822  0.13912179  0.43684710     0.77000
O225        O  0.98354152  0.10584785  0.05991044    -0.72200
O226        O  0.48292222  0.11745323  0.00493833    -0.72400
O227        O  0.41047232  0.11380747  0.03234352    -0.72200
O228        O  0.05546987  0.11144683  0.03246851    -0.72200
O229        O  0.05315699  0.43234161  0.03132051    -0.72200
O230        O  0.40798328  0.43170392  0.03202776    -0.72200
O231        O  0.97968834  0.43169629  0.00440302    -0.72200
O232        O  0.48242102  0.43234567  0.05890921    -0.72400
V233        V  0.98311063  0.10967996  0.03245249     1.35200
V234        V  0.98075084  0.43368549  0.03171965     1.35200
C235        C  0.98542717  0.06245326  0.06799690     0.77100
C236        C  0.98293354  0.07579962  0.99487737     0.77100
C237        C  0.38604838  0.07228214  0.03160524     0.77000
C238        C  0.08022428  0.07010956  0.03135975     0.77000
O239        O  0.51868766  0.31162063  0.05843799    -0.72200
O240        O  0.52050770  0.31424670  0.00376182    -0.72400
O241        O  0.44739366  0.31318191  0.03081755    -0.72200
O242        O  0.09224554  0.31292171  0.03215408    -0.72200
O243        O  0.09252133  0.22989230  0.03100384    -0.72200
O244        O  0.44759293  0.23009919  0.03056264    -0.72200
O245        O  0.51991994  0.23119007  0.00330264    -0.72200
O246        O  0.52028897  0.22878135  0.05770094    -0.72400
V247        V  0.51981573  0.31148793  0.03109048     1.35200
V248        V  0.52010800  0.23170473  0.03052240     1.35200
C249        C  0.51905771  0.26955096  0.06740628     0.77100
C250        C  0.52013231  0.27299895  0.99426604     0.77100
C251        C  0.42290944  0.27165505  0.03073796     0.77000
C252        C  0.11698515  0.27144652  0.03155005     0.77000
O253        O  0.23266921  0.10878697  0.05962010    -0.72200
O254        O  0.23274394  0.11671499  0.00481095    -0.72400
O255        O  0.16020729  0.11223092  0.03213609    -0.72200
O256        O  0.30521550  0.11344729  0.03236513    -0.72200
O257        O  0.30292129  0.43201749  0.03128379    -0.72200
O258        O  0.15800694  0.43244692  0.03193754    -0.72200
O259        O  0.22960209  0.43114467  0.00422499    -0.72200
O260        O  0.23196758  0.43360476  0.05891017    -0.72400
V261        V  0.23269216  0.11124642  0.03220049     1.35200
V262        V  0.23050469  0.43388701  0.03157585     1.35200
C263        C  0.23445500  0.06592052  0.06802926     0.77100
C264        C  0.23254147  0.07628381  0.99481135     0.77100
C265        C  0.13606115  0.07050754  0.03144875     0.77000
C266        C  0.33017332  0.07213280  0.03142744     0.77000
O267        O  0.26897259  0.31132667  0.05879857    -0.72200
O268        O  0.27028140  0.31492590  0.00413505    -0.72400
O269        O  0.19732029  0.31314252  0.03131518    -0.72200
O270        O  0.34235645  0.31321473  0.03166518    -0.72200
O271        O  0.34256823  0.23020213  0.03030402    -0.72200
O272        O  0.19763857  0.23005614  0.03116932    -0.72200
O273        O  0.26890858  0.23189020  0.00351757    -0.72200
O274        O  0.27141158  0.22842330  0.05792994    -0.72400
V275        V  0.26981439  0.31158033  0.03146446     1.35200
V276        V  0.27012856  0.23179352  0.03073867     1.35200
C277        C  0.26996290  0.26914303  0.06767058     0.77100
C278        C  0.26943345  0.27384919  0.99455607     0.77100
C279        C  0.17288270  0.27155286  0.03136189     0.77000
C280        C  0.36704823  0.27170789  0.03090123     0.77000
O281        O  0.49413921  0.08024175  0.16279545    -0.72200
O282        O  0.99886563  0.05310726  0.21665214    -0.72400
O283        O  0.06945175  0.06436388  0.18923945    -0.72200
O284        O  0.42383360  0.06675494  0.19016465    -0.72200
O285        O  0.42968745  0.44723153  0.18729029    -0.72200
O286        O  0.07425479  0.44625681  0.18771421    -0.72200
O287        O  0.50161951  0.45041005  0.21486075    -0.72200
O288        O  0.00105935  0.44435836  0.16053353    -0.72400
V289        V  0.99698454  0.06311100  0.18962279     1.35200
V290        V  0.00174230  0.44827459  0.18779378     1.35200
C291        C  0.99470657  0.03929224  0.15103453     0.77100
C292        C  0.99894540  0.00824589  0.22337493     0.77100
C293        C  0.09392389  0.02306411  0.18715731     0.77000
C294        C  0.39977112  0.02573873  0.18706456     0.77000
O295        O  0.50554409  0.30427188  0.16079309    -0.72200
O296        O  0.00743913  0.29404333  0.21577042    -0.72400
O297        O  0.07910906  0.29801971  0.18830175    -0.72200
O298        O  0.43343592  0.29906289  0.18801550    -0.72200
O299        O  0.43434028  0.21622742  0.18548887    -0.72200
O300        O  0.07875527  0.21500528  0.18693370    -0.72200
O301        O  0.50529674  0.21211656  0.21332024    -0.72200
O302        O  0.00723648  0.22031609  0.15949047    -0.72400
V303        V  0.50587616  0.29808942  0.18798653     1.35200
V304        V  0.50675916  0.21843100  0.18611716     1.35200
C305        C  0.50740542  0.26443677  0.15054005     0.77100
C306        C  0.50513569  0.25206797  0.22351448     0.77100
C307        C  0.10353488  0.25634648  0.18760334     0.77000
C308        C  0.40933052  0.25744111  0.18665310     0.77000
O309        O  0.24452400  0.07550990  0.16233251    -0.72200
O310        O  0.24878903  0.05405496  0.21647842    -0.72400
O311        O  0.31887092  0.06598710  0.18896665    -0.72200
O312        O  0.17409956  0.06411233  0.18991539    -0.72200
O313        O  0.17965648  0.44603646  0.18772529    -0.72200
O314        O  0.32474612  0.44655663  0.18783224    -0.72200
O315        O  0.25283841  0.44968891  0.21505410    -0.72200
O316        O  0.25228752  0.44273770  0.16057648    -0.72400
V317        V  0.24650585  0.06331558  0.18935191     1.35200
V318        V  0.25227832  0.44785801  0.18777975     1.35200
C319        C  0.24498194  0.03792828  0.15085926     0.77100
C320        C  0.25097356  0.00934182  0.22334782     0.77100
C321        C  0.34396654  0.02513891  0.18681073     0.77000
C322        C  0.14985270  0.02293545  0.18747812     0.77000
O323        O  0.25440543  0.30182175  0.16065059    -0.72200
O324        O  0.25830489  0.29387590  0.21513327    -0.72400
O325        O  0.32864223  0.29836395  0.18730723    -0.72200
O326        O  0.18387229  0.29762815  0.18848746    -0.72200
O327        O  0.18420101  0.21471936  0.18635881    -0.72200
O328        O  0.32929493  0.21532886  0.18598306    -0.72200
O329        O  0.25782651  0.21087918  0.21342065    -0.72200
O330        O  0.25653665  0.21897983  0.15895143    -0.72400
V331        V  0.25625225  0.29629485  0.18786330     1.35200
V332        V  0.25680912  0.21657818  0.18620879     1.35200
C333        C  0.25556179  0.26174356  0.15050654     0.77100
C334        C  0.25925192  0.25102943  0.22348424     0.77100
C335        C  0.35352796  0.25700859  0.18659251     0.77000
C336        C  0.15943959  0.25614764  0.18750155     0.77000
O337        O  0.98283971  0.43379085  0.90992878    -0.72200
O338        O  0.48265379  0.43086209  0.96440859    -0.72400
O339        O  0.41047514  0.43226920  0.93703765    -0.72200
O340        O  0.05554659  0.43265281  0.93705343    -0.72200
O341        O  0.05576030  0.11734908  0.93729824    -0.72200
O342        O  0.41125643  0.11747260  0.93634688    -0.72200
O343        O  0.98206314  0.11841226  0.96434569    -0.72200
O344        O  0.48569885  0.11458043  0.90948905    -0.72400
V345        V  0.98302462  0.43447238  0.93726335     1.35200
V346        V  0.98330990  0.11555495  0.93688730     1.35200
C347        C  0.98352222  0.07348595  0.90050266     0.77100
C348        C  0.98342866  0.07703380  0.97374635     0.77100
C349        C  0.38638452  0.07620338  0.93724998     0.77000
C350        C  0.08047995  0.07585463  0.93689415     0.77000
O351        O  0.01520271  0.23363729  0.90983911    -0.72200
O352        O  0.52011512  0.23166387  0.96393420    -0.72400
O353        O  0.44554643  0.23156591  0.93739306    -0.72200
O354        O  0.09033708  0.23253828  0.93636489    -0.72200
O355        O  0.09068850  0.31558754  0.93730279    -0.72200
O356        O  0.44553555  0.31461850  0.93661782    -0.72200
O357        O  0.01845604  0.31571437  0.96457873    -0.72200
O358        O  0.51772459  0.31434621  0.90939231    -0.72400
V359        V  0.51793217  0.23303649  0.93668322     1.35200
V360        V  0.51809975  0.31284463  0.93665644     1.35200
C361        C  0.51519176  0.27287119  0.90012300     0.77100
C362        C  0.51961729  0.27322385  0.97320586     0.77100
C363        C  0.42094515  0.27309841  0.93695959     0.77000
C364        C  0.11509209  0.27386543  0.93686938     0.77000
O365        O  0.23569229  0.43462573  0.90948127    -0.72200
O366        O  0.23120160  0.43133800  0.96416673    -0.72400
O367        O  0.16073232  0.43274478  0.93615893    -0.72200
O368        O  0.30561962  0.43271844  0.93748153    -0.72200
O369        O  0.30578495  0.11786907  0.93672587    -0.72200
O370        O  0.16077093  0.11752268  0.93676574    -0.72200
O371        O  0.23328986  0.11879237  0.96424809    -0.72200
O372        O  0.23339900  0.11598110  0.90926235    -0.72400
V373        V  0.23322772  0.43443249  0.93682486     1.35200
V374        V  0.23325790  0.11602159  0.93676397     1.35200
C375        C  0.23619260  0.07371894  0.90040822     0.77100
C376        C  0.23250962  0.07739116  0.97366931     0.77100
C377        C  0.13635564  0.07594070  0.93673241     0.77000
C378        C  0.33050949  0.07639329  0.93733429     0.77000
O379        O  0.26844101  0.23012766  0.90993892    -0.72200
O380        O  0.26756217  0.23249031  0.96434729    -0.72400
O381        O  0.19544908  0.23172300  0.93685558    -0.72200
O382        O  0.34056054  0.23147215  0.93742247    -0.72200
O383        O  0.34035914  0.31446695  0.93606889    -0.72200
O384        O  0.19557964  0.31479493  0.93735492    -0.72200
O385        O  0.26988649  0.31550957  0.96407496    -0.72200
O386        O  0.26536961  0.31296501  0.90939103    -0.72400
V387        V  0.26801741  0.23307668  0.93714178     1.35200
V388        V  0.26790041  0.31285419  0.93672385     1.35200
C389        C  0.26607316  0.27097586  0.90034588     0.77100
C390        C  0.26896589  0.27417478  0.97348338     0.77100
C391        C  0.17093535  0.27340216  0.93702814     0.77000
C392        C  0.36505870  0.27301004  0.93680767     0.77000
O393        O  0.04814499  0.50125734  0.55948057    -0.72200
O394        O  0.05126886  0.99740452  0.50552133    -0.72400
O395        O  0.04947312  0.07134825  0.53233102    -0.72200
O396        O  0.05092141  0.42680071  0.53274861    -0.72200
O397        O  0.44963296  0.43507960  0.53132651    -0.72200
O398        O  0.45078302  0.07911256  0.53089974    -0.72200
O399        O  0.45188625  0.50692687  0.50384922    -0.72200
O400        O  0.45028401  0.00779714  0.55869666    -0.72400
V401        V  0.04774220  0.99890318  0.53283926     1.35200
V402        V  0.45338453  0.00673702  0.53129748     1.35200
C403        C  0.00543149  0.99906185  0.56909444     0.77100
C404        C  0.01034957  0.99846807  0.49583792     0.77100
C405        C  0.00796387  0.09607959  0.53233293     0.77000
C406        C  0.00952746  0.40208308  0.53188400     0.77000
O407        O  0.04867269  0.24834874  0.55943961    -0.72200
O408        O  0.05191284  0.24917608  0.50496814    -0.72400
O409        O  0.05088896  0.32131774  0.53242158    -0.72200
O410        O  0.04988054  0.17628055  0.53209669    -0.72200
O411        O  0.44948197  0.18441609  0.53091450    -0.72200
O412        O  0.44898541  0.32965653  0.53023241    -0.72200
O413        O  0.45182761  0.25614022  0.50331805    -0.72200
O414        O  0.44604785  0.25825995  0.55775602    -0.72400
V415        V  0.04874696  0.24878983  0.53220864     1.35200
V416        V  0.45067932  0.25707327  0.53055965     1.35200
C417        C  0.00660802  0.24984676  0.56834346     0.77100
C418        C  0.01080758  0.24889634  0.49541470     0.77100
C419        C  0.00948977  0.34620744  0.53183302     0.77000
C420        C  0.00818289  0.15200492  0.53211093     0.77000
O421        O  0.32398206  0.48325830  0.55865405    -0.72200
O422        O  0.33006873  0.98420437  0.50499826    -0.69200
O423        O  0.32630272  0.05655662  0.53243325    -0.72200
O424        O  0.32643569  0.41128988  0.53109802    -0.72200
O425        O  0.24335205  0.41170066  0.53025888    -0.72200
O426        O  0.24334614  0.05652239  0.53058871    -0.72200
O427        O  0.24619244  0.48369567  0.50292378    -0.72200
O428        O  0.24000948  0.98503584  0.55812750    -0.72400
V429        V  0.32500229  0.48375907  0.53130282     1.35200
V430        V  0.24523374  0.48412118  0.53016283     1.35200
C431        C  0.28153751  0.48480967  0.56732983     0.77100
C432        C  0.28850633  0.48416005  0.49419856     0.77100
C433        C  0.28475622  0.08113927  0.53140547     0.77000
C434        C  0.28480889  0.38693413  0.53063364     0.77000
O435        O  0.32184628  0.23457935  0.55888021    -0.72200
O436        O  0.32954156  0.23388469  0.50422028    -0.72400
O437        O  0.32604603  0.30643274  0.53146769    -0.72200
O438        O  0.32603676  0.16160986  0.53172201    -0.72200
O439        O  0.24302831  0.16167041  0.53024520    -0.72200
O440        O  0.24306685  0.30671517  0.52967324    -0.72200
O441        O  0.24653872  0.23363962  0.50278346    -0.72200
O442        O  0.23913287  0.23539040  0.55705057    -0.72400
V443        V  0.32429511  0.23405855  0.53153497     1.35200
V444        V  0.24459416  0.23424498  0.52995720     1.35200
C445        C  0.27896227  0.23591861  0.56730105     0.77100
C446        C  0.28906973  0.23417932  0.49424284     0.77100
C447        C  0.28461675  0.33113270  0.53057225     0.77000
C448        C  0.28458052  0.13703902  0.53111925     0.77000
C449        C  0.23588730  0.30234605  0.09851938    -0.26700
C450        C  0.26764359  0.26741650  0.08889206    -0.14800
C451        C  0.29506106  0.23058172  0.09960865     0.35900
C452        C  0.29001757  0.22965508  0.11967904    -0.26100
C453        C  0.25816192  0.26443611  0.12930973    -0.15400
C454        C  0.23022164  0.30087372  0.11859618     0.36900
N455        N  0.19380952  0.33391478  0.12787777    -0.89600
H456        H  0.21421308  0.33000861  0.09025811     0.18100
H457        H  0.31150977  0.20178455  0.12790987     0.18000
N458        N  0.32921917  0.19538738  0.09023574    -0.88700
H459        H  0.17422316  0.35600009  0.11774248     0.35400
H460        H  0.21375110  0.35970254  0.13649208     0.40500
H461        H  0.30707883  0.16917358  0.08257636     0.40100
H462        H  0.34947657  0.17390030  0.10036532     0.35000
C463        C  0.22021833  0.08966897  0.12206041    -0.26700
C464        C  0.24371810  0.04564546  0.12966170    -0.14800
C465        C  0.27548940  0.44549255  0.11834289     0.35900
C466        C  0.26860937  0.44365275  0.09841291    -0.26100
C467        C  0.23771572  0.06129111  0.08930685    -0.15400
C468        C  0.21658067  0.09760940  0.10214765     0.36900
N469        N  0.18914676  0.14153309  0.09546462    -0.89600
H470        H  0.20333271  0.11760128  0.13165061     0.18100
H471        H  0.29136864  0.41708826  0.09005883     0.18000
N472        N  0.31421753  0.41367370  0.12671134    -0.88700
H473        H  0.21393882  0.16462690  0.08762052     0.35400
H474        H  0.15991624  0.12910355  0.08635682     0.40500
H475        H  0.34017379  0.43700684  0.13401540     0.40100
H476        H  0.29752461  0.38876885  0.13654358     0.35000
C477        C  0.98949744  0.30578455  0.09905730    -0.26700
C478        C  0.51685540  0.26803115  0.08869727    -0.14800
C479        C  0.53886371  0.22758469  0.09935968     0.35900
C480        C  0.53512131  0.22779412  0.11945653    -0.26100
C481        C  0.50985679  0.26719572  0.12928876    -0.15400
C482        C  0.98549996  0.30563319  0.11921412     0.36900
N483        N  0.95613838  0.34450904  0.12877686    -0.89600
H484        H  0.97131670  0.33613364  0.09095265     0.18100
H485        H  0.55244943  0.19691299  0.12754571     0.18000
N486        N  0.56628719  0.18711057  0.08992990    -0.88700
H487        H  0.93900393  0.36898489  0.11879310     0.35400
H488        H  0.98157579  0.36696059  0.13663801     0.40500
H489        H  0.53965253  0.16512913  0.08246498     0.40100
H490        H  0.58235630  0.16239211  0.10006040     0.35000
C491        C  0.02804388  0.45246960  0.11928529    -0.26700
C492        C  0.99311245  0.04758049  0.12988422    -0.14800
C493        C  0.46545259  0.09271438  0.12123663     0.35900
C494        C  0.46409051  0.09722507  0.10115492    -0.26100
C495        C  0.98906501  0.05711845  0.08923967    -0.15400
C496        C  0.02486261  0.44882582  0.09927444     0.36900
N497        N  0.06347983  0.42034488  0.08935017    -0.89600
H498        H  0.05819772  0.43208676  0.12675438     0.18100
H499        H  0.44165160  0.12761673  0.09474224     0.18000
N500        N  0.43588072  0.12805560  0.13233741    -0.88700
H501        H  0.04607492  0.39085558  0.08168299     0.35400
H502        H  0.08160100  0.44469015  0.07961892     0.40500
H503        H  0.41026114  0.10744610  0.14082506     0.40100
H504        H  0.46050750  0.14853920  0.14125408     0.35000
C505        C  0.31936121  0.26925700  0.34784090    -0.26700
C506        C  0.28151531  0.24068937  0.33840059    -0.14800
C507        C  0.24833351  0.20966689  0.34938785     0.35900
C508        C  0.25324180  0.20848531  0.36935780    -0.26100
C509        C  0.29044255  0.23769179  0.37884878    -0.15400
C510        C  0.32371910  0.26865940  0.36788307     0.36900
N511        N  0.36032800  0.30191781  0.37667902    -0.89600
H512        H  0.34483921  0.29340069  0.33961624     0.18100
H513        H  0.22758502  0.18445723  0.37755592     0.18000
N514        N  0.21020607  0.17786168  0.34070739    -0.88700
H515        H  0.38620612  0.27987154  0.38450380     0.35400
H516        H  0.34109907  0.32634391  0.38611804     0.40500
H517        H  0.22787178  0.15402391  0.33064458     0.40100
H518        H  0.18340360  0.20098175  0.33374924     0.35000
C519        C  0.24393795  0.01328378  0.34930183    -0.26700
C520        C  0.28380939  0.99270791  0.33824806    -0.14800
C521        C  0.32927808  0.47282468  0.34778115     0.35900
C522        C  0.33038377  0.47204575  0.36799586    -0.26100
C523        C  0.29083336  0.49415397  0.37882055    -0.15400
C524        C  0.24583388  0.01352513  0.36946101     0.36900
N525        N  0.20493593  0.03668140  0.38018662    -0.89600
H526        H  0.21122449  0.03014289  0.34214326     0.18100
H527        H  0.36148784  0.45278697  0.37532473     0.18000
N528        N  0.36916488  0.44820791  0.33699976    -0.88700
H529        H  0.17628462  0.05018152  0.37100688     0.35400
H530        H  0.21989752  0.06867576  0.38721252     0.40500
H531        H  0.35291798  0.41711497  0.32981350     0.40100
H532        H  0.39702206  0.43320580  0.34619481     0.35000
C533        C  0.05406688  0.23999237  0.34895428    -0.26700
C534        C  0.49870002  0.24809058  0.33876961    -0.14800
C535        C  0.46509535  0.21747064  0.34964025     0.35900
C536        C  0.46682216  0.22010581  0.36979339    -0.26100
C537        C  0.50097141  0.25291779  0.37929257    -0.15400
C538        C  0.05708314  0.23931235  0.36908765     0.36900
N539        N  0.10607593  0.23434642  0.37830094    -0.89600
H540        H  0.08904327  0.23718781  0.34072168     0.18100
H541        H  0.44139939  0.19629958  0.37817448     0.18000
N542        N  0.43084181  0.18242940  0.34028783    -0.88700
H543        H  0.13550393  0.23402897  0.36816841     0.35400
H544        H  0.10702720  0.19863394  0.38501387     0.40500
H545        H  0.40301823  0.20397407  0.33317651     0.40100
H546        H  0.41128584  0.16046500  0.35041982     0.35000
C547        C  0.46640782  0.53023486  0.34815216    -0.26700
C548        C  0.50710724  0.99779408  0.33848233    -0.14800
C549        C  0.05881602  0.98702209  0.34972010     0.35900
C550        C  0.05704823  0.98846872  0.36986638    -0.26100
C551        C  0.50435838  0.00417488  0.37919180    -0.15400
C552        C  0.46423090  0.53336848  0.36818594     0.36900
N553        N  0.42697906  0.56678842  0.37657228    -0.89600
H554        H  0.43924242  0.55212446  0.33972772     0.18100
H555        H  0.09189104  0.98082040  0.37779963     0.18000
N556        N  0.10688967  0.97552883  0.34089769    -0.88700
H557        H  0.44583266  0.59305455  0.38539574     0.35400
H558        H  0.40181352  0.54528659  0.38489005     0.40500
H559        H  0.11784475  0.00653022  0.33241722     0.40100
H560        H  0.10264086  0.94308140  0.33228503     0.35000
C561        C  0.28477541  0.23366045  0.84798418    -0.26700
C562        C  0.25326640  0.26930046  0.83858836    -0.14800
C563        C  0.22576958  0.30528412  0.84970849     0.35900
C564        C  0.23072111  0.30501067  0.86974118    -0.26100
C565        C  0.26266758  0.26967707  0.87910874    -0.15400
C566        C  0.28989912  0.23349513  0.86796841     0.36900
N567        N  0.32422644  0.19712879  0.87640609    -0.89600
H568        H  0.30619471  0.20587684  0.83968709     0.18100
H569        H  0.20878290  0.33227333  0.87808845     0.18000
N570        N  0.19109976  0.34117003  0.84120241    -0.88700
H571        H  0.30350575  0.17253589  0.88523989     0.35400
H572        H  0.35115511  0.21678534  0.88468642     0.40500
H573        H  0.16417603  0.32102565  0.83308736     0.40100
H574        H  0.21158561  0.36533523  0.83212823     0.35000
C575        C  0.21272432  0.10518605  0.86759041    -0.26700
C576        C  0.24038962  0.07092686  0.87915870    -0.14800
C577        C  0.27192467  0.44743589  0.86878038     0.35900
C578        C  0.27300599  0.45118018  0.84863788    -0.26100
C579        C  0.24283882  0.06218378  0.83856644    -0.15400
C580        C  0.21314361  0.10091649  0.84737514     0.36900
N581        N  0.18124509  0.13372400  0.83594971    -0.89600
H582        H  0.18928744  0.13421086  0.87437002     0.18100
H583        H  0.29865414  0.42681253  0.84052964     0.18000
N584        N  0.30724639  0.41421709  0.87853270    -0.88700
H585        H  0.15983176  0.15813077  0.84471115     0.35400
H586        H  0.20527143  0.15716882  0.82794340     0.40500
H587        H  0.28621737  0.38546501  0.88515236     0.40100
H588        H  0.33127146  0.39589886  0.86870282     0.35000
C589        C  0.02585924  0.31146969  0.84783827    -0.26700
C590        C  0.50047421  0.26912220  0.83859576    -0.14800
C591        C  0.47579183  0.23229853  0.85007000     0.35900
C592        C  0.48150493  0.23428920  0.87011053    -0.26100
C593        C  0.51077934  0.27263089  0.87894525    -0.15400
C594        C  0.03170657  0.31392632  0.86790371     0.36900
N595        N  0.06063022  0.35467837  0.87648568    -0.89600
H596        H  0.04368311  0.34030633  0.83893914     0.18100
H597        H  0.46240804  0.20608330  0.87892444     0.18000
N598        N  0.44418763  0.19374611  0.84138416    -0.88700
H599        H  0.07331355  0.38026252  0.86600941     0.35400
H600        H  0.09331667  0.33856245  0.88268293     0.40500
H601        H  0.41333713  0.21227486  0.83482130     0.40100
H602        H  0.42866403  0.16975648  0.85184990     0.35000
C603        C  0.46530840  0.43964271  0.86843371    -0.26700
C604        C  0.98392859  0.07083716  0.87925089    -0.14800
C605        C  0.01654212  0.10158604  0.86799874     0.35900
C606        C  0.01709513  0.09528229  0.84787277    -0.26100
C607        C  0.98668993  0.05798876  0.83891452    -0.15400
C608        C  0.46634396  0.44179925  0.84824762     0.36900
N609        N  0.43858577  0.40480244  0.83709788    -0.89600
H610        H  0.44339894  0.41002257  0.87549163     0.18100
H611        H  0.04258226  0.11830274  0.83922156     0.18000
N612        N  0.05029480  0.13757942  0.87706628    -0.88700
H613        H  0.42116361  0.37790433  0.84603111     0.35400
H614        H  0.40911158  0.42411595  0.82998399     0.40500
H615        H  0.07640118  0.11686981  0.88537676     0.40100
H616        H  0.07165168  0.15722978  0.86677963     0.35000
C617        C  0.23029292  0.25720287  0.61833413    -0.26700
C618        C  0.27264781  0.24187865  0.62932411    -0.14800
C619        C  0.31728326  0.22497848  0.61974591     0.35900
C620        C  0.31816591  0.22342366  0.59956775    -0.26100
C621        C  0.27554582  0.23810590  0.58860035    -0.15400
C622        C  0.23099714  0.25539638  0.59817659     0.36900
N623        N  0.18692055  0.27221839  0.58753369    -0.89600
H624        H  0.19618717  0.27078018  0.62551833     0.18100
H625        H  0.35242527  0.21024425  0.59235985     0.18000
N626        N  0.36125950  0.20838052  0.63042590    -0.88700
H627        H  0.15950926  0.28799129  0.59671346     0.35400
H628        H  0.16994286  0.23980845  0.58152142     0.40500
H629        H  0.37632381  0.24064887  0.63714046     0.40100
H630        H  0.38982949  0.19527337  0.62117591     0.35000
C631        C  0.23109147  0.00549373  0.61943128    -0.26700
C632        C  0.27522150  0.49084238  0.62930046    -0.14800
C633        C  0.31746108  0.46774241  0.61992676     0.35900
C634        C  0.31916072  0.46686776  0.59969277    -0.26100
C635        C  0.27906349  0.48713380  0.58861452    -0.15400
C636        C  0.23286616  0.00479079  0.59928153     0.36900
N637        N  0.19001679  0.02371083  0.58860777    -0.89600
H638        H  0.19694529  0.02002387  0.62634909     0.18100
H639        H  0.35142851  0.44918365  0.59254221     0.18000
N640        N  0.35691845  0.44262597  0.63081361    -0.88700
H641        H  0.18366113  0.06166434  0.59266927     0.35400
H642        H  0.15790689  0.00233386  0.59244954     0.40500
H643        H  0.37756626  0.47058035  0.63811775     0.40100
H644        H  0.38308094  0.42471835  0.62168034     0.35000
C645        C  0.45773056  0.29192191  0.61940561    -0.26700
C646        C  0.00504748  0.24802854  0.63008087    -0.14800
C647        C  0.04738706  0.22818841  0.61981925     0.35900
C648        C  0.04679232  0.22915228  0.59967729    -0.26100
C649        C  0.00540078  0.25003169  0.58953890    -0.15400
C650        C  0.45469519  0.29153083  0.59924631     0.36900
N651        N  0.42289498  0.32792037  0.58938005    -0.89600
H652        H  0.43535112  0.31934595  0.62750344     0.18100
H653        H  0.07878618  0.21315244  0.59184268     0.18000
N654        N  0.09020725  0.20586502  0.62973484    -0.88700
H655        H  0.40553864  0.35276255  0.59916301     0.35400
H656        H  0.39321911  0.30769826  0.58281281     0.40500
H657        H  0.11041896  0.23563069  0.63623950     0.40100
H658        H  0.11560160  0.18906530  0.62000828     0.35000
C659        C  0.03592712  0.02723368  0.62144282    -0.26700
C660        C  0.00241202  0.99397095  0.63094235    -0.14800
C661        C  0.45569302  0.54128385  0.61911472     0.35900
C662        C  0.45622944  0.53859327  0.59893999    -0.26100
C663        C  0.00418995  0.99856608  0.59036626    -0.15400
C664        C  0.03666140  0.03039418  0.60128043     0.36900
N665        N  0.06908161  0.06689073  0.59187133    -0.89600
H666        H  0.06054995  0.05198053  0.62981992     0.18100
H667        H  0.43079132  0.56290846  0.59070560     0.18000
N668        N  0.42315191  0.57766680  0.62865588    -0.88700
H669        H  0.09020921  0.08764814  0.60195566     0.35400
H670        H  0.04545806  0.09323963  0.58486558     0.40500
H671        H  0.39519571  0.55754475  0.63616229     0.40100
H672        H  0.40350297  0.59998421  0.61861513     0.35000
O673        O  0.45182249  0.00893491  0.66103848    -0.72200
O674        O  0.45347443  0.50811200  0.71517360    -0.72400
O675        O  0.45201767  0.58224064  0.68838573    -0.72200
O676        O  0.45281174  0.93732751  0.68890109    -0.72200
O677        O  0.03922194  0.92547709  0.68973649    -0.72200
O678        O  0.03888432  0.57096423  0.68810660    -0.72200
O679        O  0.03788264  0.00031543  0.71652596    -0.72200
O680        O  0.04037564  0.49984745  0.66054615    -0.72400
V681        V  0.45341130  0.50981544  0.68789122     1.35200
V682        V  0.03812291  0.49859689  0.68778287     1.35200
C683        C  0.99914781  0.49791765  0.65107608     0.77100
C684        C  0.99579323  0.00566636  0.72518966     0.77100
C685        C  0.49362326  0.60655793  0.68767182     0.77000
C686        C  0.49439326  0.91263582  0.68948371     0.77000
O687        O  0.03991541  0.75143773  0.66153926    -0.72200
O688        O  0.03716462  0.74376083  0.71597130    -0.72400
O689        O  0.03844442  0.67553567  0.68752585    -0.72200
O690        O  0.03859483  0.82034520  0.69009532    -0.72200
O691        O  0.45288820  0.83205381  0.68981620    -0.72200
O692        O  0.45240795  0.68719453  0.68729745    -0.72200
O693        O  0.45246875  0.75516676  0.71584795    -0.72200
O694        O  0.45303976  0.76318817  0.66121307    -0.72400
V695        V  0.03688265  0.74789535  0.68875969     1.35200
V696        V  0.45432386  0.75957001  0.68854549     1.35200
C697        C  0.99902576  0.75185918  0.65182935     0.77100
C698        C  0.49398060  0.75241332  0.72511545     0.77100
C699        C  0.49384734  0.66234979  0.68756315     0.77000
C700        C  0.49445780  0.85654540  0.68971167     0.77000
O701        O  0.22436035  0.99257361  0.65993280    -0.72200
O702        O  0.21344413  0.49418287  0.71286786    -0.72400
O703        O  0.21973057  0.56710760  0.68578383    -0.72200
O704        O  0.21698436  0.92297032  0.68818246    -0.72200
O705        O  0.29962811  0.92261064  0.69138116    -0.72200
O706        O  0.30260582  0.56728472  0.68817364    -0.72200
O707        O  0.29352372  0.00000404  0.71720557    -0.72200
O708        O  0.30947495  0.49334348  0.66130857    -0.72400
V709        V  0.21914739  0.99563380  0.68721440     1.35200
V710        V  0.29859529  0.99511563  0.68998067     1.35200
C711        C  0.26790055  0.99049253  0.65201739     0.77100
C712        C  0.24994723  0.00315950  0.72495954     0.77100
C713        C  0.26102576  0.59177285  0.68701977     0.77000
C714        C  0.25824818  0.89809095  0.68982743     0.77000
O715        O  0.30686758  0.74577275  0.66242361    -0.72200
O716        O  0.29455701  0.74283823  0.71685077    -0.72400
O717        O  0.30160497  0.67242823  0.68906349    -0.72200
O718        O  0.30007476  0.81744626  0.69030848    -0.72200
O719        O  0.21723068  0.81707830  0.68797808    -0.72200
O720        O  0.21890007  0.67195124  0.68597618    -0.72200
O721        O  0.21176383  0.74119363  0.71417427    -0.72200
O722        O  0.22437033  0.74658567  0.65969986    -0.72400
V723        V  0.29914379  0.74484282  0.68960438     1.35200
V724        V  0.21965635  0.74441433  0.68700292     1.35200
C725        C  0.26780509  0.74533053  0.65168665     0.77100
C726        C  0.25114044  0.73991924  0.72470518     0.77100
C727        C  0.26052058  0.64761426  0.68730783     0.77000
C728        C  0.25844280  0.84195011  0.68946950     0.77000
O729        O  0.49088918  0.00563112  0.81086172    -0.72200
O730        O  0.99565351  0.97853907  0.75768398    -0.72400
O731        O  0.06548847  0.99129075  0.78548786    -0.72200
O732        O  0.42118970  0.99476484  0.78312298    -0.72200
O733        O  0.42311799  0.53553272  0.78307927    -0.72200
O734        O  0.06907605  0.53031655  0.78183882    -0.72200
O735        O  0.49479934  0.54286072  0.75558004    -0.72200
O736        O  0.99828998  0.52665700  0.80971060    -0.72400
V737        V  0.99283501  0.99310426  0.78440817     1.35200
V738        V  0.99680967  0.52976170  0.78238614     1.35200
C739        C  0.99524603  0.48370610  0.81799410     0.77100
C740        C  0.99454242  0.01510425  0.74589221     0.77100
C741        C  0.09028761  0.03168143  0.78204215     0.77000
C742        C  0.39622753  0.03585675  0.78143019     0.77000
O743        O  0.49539425  0.66693835  0.80544806    -0.72200
O744        O  0.99485262  0.68802494  0.75210300    -0.72400
O745        O  0.06688848  0.67411540  0.77918087    -0.72200
O746        O  0.42345158  0.68010059  0.77833638    -0.72200
O747        O  0.42179165  0.76102332  0.78543301    -0.72200
O748        O  0.06814602  0.75642167  0.78343605    -0.72200
O749        O  0.49211652  0.77763389  0.75798300    -0.72200
O750        O  0.99795479  0.74550041  0.81096782    -0.72400
V751        V  0.49570978  0.68303685  0.77873014     1.35200
V752        V  0.49440013  0.76128545  0.78463654     1.35200
C753        C  0.49741460  0.70289032  0.81759053     0.77100
C754        C  0.49401830  0.74186299  0.74581712     0.77100
C755        C  0.09213964  0.71490139  0.78125125     0.77000
C756        C  0.39805475  0.71997433  0.78195276     0.77000
O757        O  0.24506494  0.00705508  0.81128489    -0.72200
O758        O  0.24373422  0.97785041  0.75773816    -0.72400
O759        O  0.31657422  0.99374226  0.78414353    -0.72200
O760        O  0.17148625  0.99148263  0.78499067    -0.72200
O761        O  0.17300715  0.53081691  0.78061115    -0.72200
O762        O  0.31778797  0.53388801  0.78227666    -0.72200
O763        O  0.24785015  0.53427213  0.75409123    -0.72200
O764        O  0.24275432  0.53043334  0.80864898    -0.72400
V765        V  0.24408612  0.99412618  0.78443078     1.35200
V766        V  0.24536871  0.53073650  0.78137722     1.35200
C767        C  0.24442267  0.48843319  0.81759036     0.77100
C768        C  0.24835827  0.49335323  0.74443948     0.77100
C769        C  0.34328878  0.49292507  0.78134667     0.77000
C770        C  0.14918506  0.48887324  0.78086915     0.77000
O771        O  0.24742696  0.66354767  0.80603848    -0.72200
O772        O  0.24541763  0.68710492  0.75215313    -0.72400
O773        O  0.31865813  0.67720436  0.77886534    -0.72200
O774        O  0.17336395  0.67384821  0.77930549    -0.72200
O775        O  0.17207703  0.75627344  0.78322169    -0.72200
O776        O  0.31667261  0.75868967  0.78496464    -0.72200
O777        O  0.24669658  0.76916020  0.75707042    -0.72200
O778        O  0.24234604  0.74528585  0.81098728    -0.72400
V779        V  0.24608708  0.67698487  0.77917568     1.35200
V780        V  0.24438591  0.75574071  0.78397103     1.35200
C781        C  0.24493416  0.70045936  0.81773333     0.77100
C782        C  0.24703936  0.73196679  0.74547410     0.77100
C783        C  0.34223540  0.71853898  0.78196940     0.77000
C784        C  0.14809677  0.71478382  0.78122488     0.77000
O785        O  0.46197243  0.50002740  0.30834566    -0.72200
O786        O  0.45975801  0.99789415  0.25354829    -0.72400
O787        O  0.46280230  0.92435393  0.28066863    -0.72200
O788        O  0.46298760  0.57004820  0.28037062    -0.72200
O789        O  0.05263408  0.56751731  0.28033544    -0.72200
O790        O  0.04940173  0.92385252  0.27918000    -0.72200
O791        O  0.04899572  0.49389900  0.25329847    -0.72200
O792        O  0.05206303  0.99459978  0.30724696    -0.72400
V793        V  0.46331659  0.49761915  0.28107961     1.35200
V794        V  0.05011532  0.49494376  0.28057525     1.35200
C795        C  0.50349925  0.49824015  0.31765136     0.77100
C796        C  0.50293940  0.49493661  0.24453321     0.77100
C797        C  0.50452598  0.90006290  0.27963234     0.77000
C798        C  0.50488510  0.59395626  0.28090274     0.77000
O799        O  0.05158453  0.74742461  0.30786452    -0.72200
O800        O  0.05234407  0.74401133  0.25325967    -0.72400
O801        O  0.05100647  0.81855097  0.28001765    -0.72200
O802        O  0.05275626  0.67331210  0.28099788    -0.72200
O803        O  0.46397479  0.67449362  0.27990118    -0.72200
O804        O  0.46360368  0.81932063  0.27988545    -0.72200
O805        O  0.46610268  0.74613417  0.25254339    -0.72200
O806        O  0.46188541  0.74678395  0.30727453    -0.72400
V807        V  0.05032125  0.74591620  0.28054489     1.35200
V808        V  0.46550352  0.74682470  0.27991497     1.35200
C809        C  0.50263827  0.74937506  0.31704591     0.77100
C810        C  0.50831110  0.74248764  0.24380587     0.77100
C811        C  0.50500759  0.84406087  0.27956349     0.77000
C812        C  0.50538392  0.64984050  0.28102321     0.77000
O813        O  0.23875888  0.49789103  0.30941414    -0.72200
O814        O  0.21838701  0.99895780  0.25493986    -0.72400
O815        O  0.22631162  0.92381677  0.28147403    -0.72200
O816        O  0.23040736  0.56837438  0.28177473    -0.72200
O817        O  0.31324715  0.56835084  0.27928448    -0.72200
O818        O  0.30879528  0.92361674  0.27777885    -0.72200
O819        O  0.30495566  0.49617767  0.25190574    -0.72200
O820        O  0.31726376  0.99312638  0.30597545    -0.72400
V821        V  0.23217760  0.49602794  0.28230242     1.35200
V822        V  0.31154403  0.49580036  0.27909725     1.35200
C823        C  0.28263908  0.49651012  0.31705949     0.77100
C824        C  0.26095521  0.49456841  0.24440189     0.77100
C825        C  0.26756724  0.89905849  0.27954710     0.77000
C826        C  0.27177489  0.59293463  0.28057849     0.77000
O827        O  0.31543717  0.74817998  0.30669741    -0.72200
O828        O  0.30713157  0.74384171  0.25213757    -0.72400
O829        O  0.30989234  0.81886496  0.27865375    -0.72200
O830        O  0.31252521  0.67383904  0.28002763    -0.72200
O831        O  0.22949346  0.67283413  0.28126206    -0.72200
O832        O  0.22704236  0.81784552  0.28090557    -0.72200
O833        O  0.22414314  0.74396747  0.25378913    -0.72200
O834        O  0.23269435  0.74530958  0.30838159    -0.72400
V835        V  0.30962925  0.74633093  0.27941848     1.35200
V836        V  0.22995461  0.74522154  0.28106138     1.35200
C837        C  0.27548646  0.74587628  0.31687998     0.77100
C838        C  0.26430769  0.74202604  0.24374639     0.77100
C839        C  0.26807982  0.84301029  0.27963772     0.77000
C840        C  0.27133906  0.64876468  0.28064955     0.77000
O841        O  0.46121170  0.00673423  0.40949696    -0.72200
O842        O  0.45415297  0.50592976  0.46422398    -0.72400
O843        O  0.45662296  0.57929016  0.43735469    -0.72200
O844        O  0.45933998  0.93358013  0.43646625    -0.72200
O845        O  0.05374102  0.92568345  0.43793828    -0.72200
O846        O  0.05436027  0.57034133  0.43775704    -0.72200
O847        O  0.05309433  0.99784779  0.46552360    -0.72200
O848        O  0.05359011  0.49789890  0.41042035    -0.72400
V849        V  0.45726190  0.50675170  0.43698571     1.35200
V850        V  0.05243614  0.49782880  0.43772484     1.35200
C851        C  0.49870601  0.50632157  0.40070213     0.77100
C852        C  0.01260806  0.49814556  0.47424447     0.77100
C853        C  0.49852611  0.60325971  0.43730261     0.77000
C854        C  0.50089571  0.90901490  0.43726059     0.77000
O855        O  0.05480702  0.74781757  0.41038406    -0.72200
O856        O  0.05368427  0.74849911  0.46507867    -0.72400
O857        O  0.05447783  0.67561043  0.43780883    -0.72200
O858        O  0.05414294  0.82064761  0.43765845    -0.72200
O859        O  0.45925914  0.82886234  0.43630159    -0.72200
O860        O  0.45801321  0.68413086  0.43737321    -0.72200
O861        O  0.45705113  0.75797650  0.46418673    -0.72200
O862        O  0.46055143  0.75458239  0.40949297    -0.72400
V863        V  0.05268207  0.74814388  0.43771707     1.35200
V864        V  0.46035392  0.75644234  0.43685110     1.35200
C865        C  0.50256563  0.75569688  0.40051295     0.77100
C866        C  0.49794387  0.75659776  0.47390730     0.77100
C867        C  0.49929577  0.65910753  0.43730701     0.77000
C868        C  0.50085525  0.85316950  0.43718099     0.77000
O869        O  0.24903126  0.98795139  0.40999473    -0.72200
O870        O  0.24860767  0.48457581  0.46365722    -0.72400
O871        O  0.24933746  0.55892839  0.43712280    -0.72200
O872        O  0.24919587  0.91397980  0.43677052    -0.72200
O873        O  0.33229598  0.91353883  0.43698994    -0.72200
O874        O  0.33243928  0.55870539  0.43682799    -0.72200
O875        O  0.33270200  0.98556958  0.46457387    -0.72200
O876        O  0.33276100  0.48692365  0.40935870    -0.72400
V877        V  0.25112462  0.98645462  0.43719555     1.35200
V878        V  0.33091651  0.98597421  0.43707825     1.35200
C879        C  0.29002535  0.98846628  0.40042003     0.77100
C880        C  0.29101455  0.98492904  0.47381948     0.77100
C881        C  0.29090610  0.58340174  0.43693953     0.77000
C882        C  0.29067112  0.88918362  0.43689324     0.77000
O883        O  0.24883796  0.73580049  0.40960522    -0.72200
O884        O  0.24933877  0.73665581  0.46414666    -0.72400
O885        O  0.24905971  0.80880042  0.43669502    -0.72200
O886        O  0.24929069  0.66384426  0.43707823    -0.72200
O887        O  0.33236758  0.66385120  0.43637386    -0.72200
O888        O  0.33214973  0.80873961  0.43734828    -0.72200
O889        O  0.33237474  0.73490926  0.46431236    -0.72200
O890        O  0.33174355  0.73813831  0.40943545    -0.72400
V891        V  0.25078842  0.73629110  0.43688414     1.35200
V892        V  0.33058688  0.73634910  0.43686200     1.35200
C893        C  0.29004255  0.73775336  0.40016434     0.77100
C894        C  0.29071110  0.73544174  0.47354468     0.77100
C895        C  0.29059425  0.83334518  0.43697789     0.77000
C896        C  0.29087667  0.63926223  0.43679355     0.77000
O897        O  0.97966768  0.51551648  0.05885779    -0.72200
O898        O  0.48100659  0.51378091  0.00409724    -0.72400
O899        O  0.40794755  0.51475349  0.03107439    -0.72200
O900        O  0.05266071  0.51542279  0.03179235    -0.72200
O901        O  0.05582668  0.02858138  0.03018050    -0.72200
O902        O  0.41080882  0.03080491  0.03098376    -0.72200
O903        O  0.98265164  0.03310432  0.00329148    -0.72200
O904        O  0.48468691  0.02689982  0.05782837    -0.72400
V905        V  0.98013077  0.51350668  0.03160186     1.35200
V906        V  0.98326699  0.03008573  0.03041112     1.35200
C907        C  0.98221519  0.47421777  0.06820786     0.77100
C908        C  0.98048803  0.47316090  0.99509819     0.77100
C909        C  0.38337681  0.47329407  0.03151578     0.77000
C910        C  0.07749413  0.47396033  0.03153589     0.77000
O911        O  0.51536781  0.71853788  0.05702913    -0.72200
O912        O  0.51599195  0.71013946  0.00281288    -0.72400
O913        O  0.44338304  0.71428836  0.02980648    -0.72200
O914        O  0.08819096  0.71391163  0.03037814    -0.72200
O915        O  0.08855051  0.63092363  0.03176780    -0.72200
O916        O  0.44348862  0.63137146  0.03172055    -0.72200
O917        O  0.51563789  0.62719377  0.00418737    -0.72200
O918        O  0.51619101  0.63587854  0.05907152    -0.72400
V919        V  0.51586336  0.71255296  0.02995219     1.35200
V920        V  0.51596471  0.63290991  0.03162131     1.35200
C921        C  0.51533182  0.67895971  0.06740844     0.77100
C922        C  0.51551591  0.66764606  0.99420707     0.77100
C923        C  0.41885117  0.67285942  0.03080540     0.77000
C924        C  0.11296521  0.67246455  0.03107036     0.77000
O925        O  0.22984424  0.51654209  0.05832394    -0.72200
O926        O  0.23108281  0.51418073  0.00390433    -0.72400
O927        O  0.15789934  0.51548557  0.03091429    -0.72200
O928        O  0.30292524  0.51510563  0.03139096    -0.72200
O929        O  0.30595149  0.03054229  0.03032957    -0.72200
O930        O  0.16106824  0.02922066  0.03082479    -0.72200
O931        O  0.23257686  0.03376018  0.00340048    -0.72200
O932        O  0.23478529  0.02607764  0.05774116    -0.72400
V933        V  0.23040806  0.51368844  0.03113095     1.35200
V934        V  0.23351952  0.03157933  0.03060075     1.35200
C935        C  0.23140932  0.47563409  0.06791332     0.77100
C936        C  0.23069722  0.47241635  0.99478878     0.77100
C937        C  0.13336272  0.47399734  0.03146816     0.77000
C938        C  0.32750847  0.47348665  0.03139651     0.77000
O939        O  0.26507622  0.71803411  0.05734334    -0.72200
O940        O  0.26620463  0.71090803  0.00309208    -0.72400
O941        O  0.19325100  0.71410847  0.03002970    -0.72200
O942        O  0.33827643  0.71441436  0.03040337    -0.72200
O943        O  0.33855032  0.63138822  0.03150535    -0.72200
O944        O  0.19363648  0.63119604  0.03196251    -0.72200
O945        O  0.26541494  0.62793686  0.00427684    -0.72200
O946        O  0.26687631  0.63530689  0.05915053    -0.72400
V947        V  0.26575840  0.71267857  0.03024729     1.35200
V948        V  0.26611779  0.63299480  0.03169713     1.35200
C949        C  0.26567359  0.67821642  0.06759262     0.77100
C950        C  0.26571417  0.66855764  0.99439608     0.77100
C951        C  0.16884837  0.67258876  0.03102715     0.77000
C952        C  0.36299609  0.67290601  0.03091107     0.77000
O953        O  0.49880839  0.52833075  0.15927014    -0.72200
O954        O  0.00464486  0.53219301  0.21400530    -0.72400
O955        O  0.07433179  0.52921065  0.18593509    -0.72200
O956        O  0.42893913  0.53033971  0.18708852    -0.72200
O957        O  0.42483192  0.98516998  0.18421866    -0.72200
O958        O  0.06917133  0.98211629  0.18480571    -0.72200
O959        O  0.49728538  0.97334636  0.21140042    -0.72200
O960        O  0.99623084  0.99442163  0.15783292    -0.72400
V961        V  0.00179271  0.52806512  0.18680996     1.35200
V962        V  0.99659563  0.98429914  0.18491266     1.35200
C963        C  0.99810173  0.48502205  0.15079281     0.77100
C964        C  0.00439569  0.49152959  0.22374173     0.77100
C965        C  0.09891450  0.48764629  0.18691352     0.77000
C966        C  0.40476457  0.48859414  0.18707117     0.77000
O967        O  0.50981597  0.75368594  0.15750986    -0.72200
O968        O  0.01192058  0.77264938  0.21190668    -0.72400
O969        O  0.08304382  0.76210040  0.18438576    -0.72200
O970        O  0.43769973  0.76335671  0.18460027    -0.72200
O971        O  0.43834735  0.68093599  0.18853592    -0.72200
O972        O  0.08294249  0.67993493  0.18897383    -0.72200
O973        O  0.51036375  0.69126241  0.21574034    -0.72200
O974        O  0.01027727  0.67029477  0.16191267    -0.72400
V975        V  0.51012246  0.76210554  0.18463345     1.35200
V976        V  0.51079036  0.68302152  0.18858721     1.35200
C977        C  0.51048838  0.70934617  0.15024004     0.77100
C978        C  0.50978410  0.73568519  0.22289827     0.77100
C979        C  0.10760579  0.72093838  0.18665852     0.77000
C980        C  0.41346474  0.72201360  0.18656240     0.77000
O981        O  0.24929567  0.52559369  0.15912574    -0.72200
O982        O  0.25443700  0.53269807  0.21361948    -0.72400
O983        O  0.32413381  0.52946229  0.18567091    -0.72200
O984        O  0.17931977  0.52910389  0.18700970    -0.72200
O985        O  0.17482963  0.98195582  0.18525717    -0.72200
O986        O  0.31993627  0.98373034  0.18453540    -0.72200
O987        O  0.24945301  0.97184528  0.21193240    -0.72200
O988        O  0.24608521  0.99348915  0.15796452    -0.72400
V989        V  0.25176588  0.52759877  0.18638732     1.35200
V990        V  0.24744288  0.98436321  0.18500598     1.35200
C991        C  0.25017420  0.48293692  0.15056838     0.77100
C992        C  0.25524336  0.49230421  0.22354152     0.77100
C993        C  0.34898993  0.48816595  0.18681958     0.77000
C994        C  0.15486796  0.48754343  0.18722601     0.77000
O995        O  0.25950565  0.75216119  0.15752932    -0.72200
O996        O  0.26140877  0.77279552  0.21162083    -0.72400
O997        O  0.33281944  0.76272615  0.18425492    -0.72200
O998        O  0.18790447  0.76228110  0.18479631    -0.72200
O999        O  0.18837770  0.67982990  0.18860785    -0.72200
O1000       O  0.33338304  0.68058746  0.18894746    -0.72200
O1001       O  0.26069949  0.69047374  0.21583084    -0.72200
O1002       O  0.26159504  0.67007745  0.16171069    -0.72400
V1003       V  0.26038251  0.76088674  0.18462538     1.35200
V1004       V  0.26093032  0.68184531  0.18870735     1.35200
C1005       C  0.26052147  0.70774895  0.15033574     0.77100
C1006       C  0.26162778  0.73499397  0.22289493     0.77100
C1007       C  0.35766305  0.72175774  0.18658047     0.77000
C1008       C  0.16353198  0.72096491  0.18667506     0.77000
O1009       O  0.98159043  0.03273708  0.91019015    -0.72200
O1010       O  0.48414620  0.03563443  0.96483019    -0.72400
O1011       O  0.41069969  0.03452572  0.93806155    -0.72200
O1012       O  0.05601858  0.03428024  0.93671520    -0.72200
O1013       O  0.05558417  0.51566044  0.93836079    -0.72200
O1014       O  0.41078768  0.51534213  0.93681822    -0.72200
O1015       O  0.98104424  0.51505654  0.96490824    -0.72200
O1016       O  0.48594469  0.51589071  0.91037060    -0.72400
V1017       V  0.98353197  0.03577676  0.93736976     1.35200
V1018       V  0.98316768  0.51427095  0.93766273     1.35200
C1019       C  0.98588389  0.47561582  0.90090914     0.77100
C1020       C  0.98155354  0.47332652  0.97402104     0.77100
C1021       C  0.38603726  0.47395627  0.93699417     0.77000
C1022       C  0.08015258  0.47413126  0.93754328     0.77000
O1023       O  0.01214821  0.63259535  0.90861824    -0.72200
O1024       O  0.51543398  0.62604463  0.96336837    -0.72400
O1025       O  0.44133979  0.62880606  0.93638844    -0.72200
O1026       O  0.08630537  0.62896630  0.93564771    -0.72200
O1027       O  0.08644309  0.71186467  0.93771333    -0.72200
O1028       O  0.44143824  0.71187751  0.93662809    -0.72200
O1029       O  0.01328282  0.70945441  0.96444047    -0.72200
O1030       O  0.51501893  0.71459438  0.90994841    -0.72400
V1031       V  0.51372565  0.63024178  0.93589363     1.35200
V1032       V  0.51398558  0.70996161  0.93703940     1.35200
C1033       C  0.51320407  0.67453948  0.89985844     0.77100
C1034       C  0.51467324  0.66703603  0.97306918     0.77100
C1035       C  0.41679841  0.67038919  0.93643582     0.77000
C1036       C  0.11095987  0.67029398  0.93677401     0.77000
O1037       O  0.23579795  0.03315103  0.91019870    -0.72200
O1038       O  0.23196019  0.03577562  0.96448518    -0.72400
O1039       O  0.16112885  0.03444900  0.93667407    -0.72200
O1040       O  0.30604877  0.03486371  0.93796884    -0.72200
O1041       O  0.30551383  0.51579013  0.93720171    -0.72200
O1042       O  0.16047280  0.51571363  0.93776569    -0.72200
O1043       O  0.23342802  0.51434322  0.96469296    -0.72200
O1044       O  0.23239683  0.51751106  0.91023881    -0.72400
V1045       V  0.23362520  0.03625981  0.93731764     1.35200
V1046       V  0.23295881  0.51420869  0.93746399     1.35200
C1047       C  0.23532095  0.47675047  0.90055868     0.77100
C1048       C  0.23178035  0.47250687  0.97370562     0.77100
C1049       C  0.13601327  0.47417696  0.93712467     0.77000
C1050       C  0.33015991  0.47420697  0.93723271     0.77000
O1051       O  0.26378098  0.63076643  0.90882888    -0.72200
O1052       O  0.26413213  0.62684151  0.96370843    -0.72400
O1053       O  0.19149353  0.62860498  0.93617306    -0.72200
O1054       O  0.33649903  0.62878579  0.93630652    -0.72200
O1055       O  0.33617465  0.71186022  0.93634285    -0.72200
O1056       O  0.19130615  0.71156671  0.93783347    -0.72200
O1057       O  0.26591292  0.70984306  0.96425095    -0.72200
O1058       O  0.26089300  0.71363255  0.90994074    -0.72400
V1059       V  0.26401925  0.63028337  0.93627272     1.35200
V1060       V  0.26369398  0.71004401  0.93707799     1.35200
C1061       C  0.26093018  0.67307747  0.90007859     0.77100
C1062       C  0.26530502  0.66799371  0.97327271     0.77100
C1063       C  0.16681458  0.67010309  0.93695836     0.77000
C1064       C  0.36092780  0.67036889  0.93632817     0.77000
O1065       O  0.04748555  0.00059161  0.56016753    -0.72200
O1066       O  0.05272038  0.49784860  0.50493789    -0.72400
O1067       O  0.05009501  0.57178398  0.53171588    -0.72200
O1068       O  0.04919345  0.92638942  0.53333267    -0.72200
O1069       O  0.45244958  0.93434745  0.53164014    -0.72200
O1070       O  0.45119641  0.57999970  0.53100872    -0.72200
O1071       O  0.45363008  0.00570628  0.50389851    -0.72200
O1072       O  0.44943856  0.50829546  0.55849980    -0.72400
V1073       V  0.04889283  0.49935632  0.53220643     1.35200
V1074       V  0.45212964  0.50755416  0.53117623     1.35200
C1075       C  0.00584305  0.50036063  0.56824375     0.77100
C1076       C  0.01180234  0.49845862  0.49526193     0.77100
C1077       C  0.00838361  0.59616457  0.53160754     0.77000
C1078       C  0.00766920  0.90190846  0.53238440     0.77000
O1079       O  0.04660941  0.74931185  0.55973333    -0.72200
O1080       O  0.05156836  0.74889769  0.50504239    -0.72400
O1081       O  0.04916044  0.82146139  0.53244042    -0.72200
O1082       O  0.04948339  0.67663597  0.53239733    -0.72200
O1083       O  0.45181787  0.68493516  0.53163017    -0.72200
O1084       O  0.45260941  0.82981702  0.53097130    -0.72200
O1085       O  0.45430785  0.75648300  0.50395463    -0.72200
O1086       O  0.45003807  0.75877435  0.55866197    -0.72400
V1087       V  0.04760412  0.74905976  0.53237985     1.35200
V1088       V  0.45381647  0.75742935  0.53132094     1.35200
C1089       C  0.00422520  0.74859749  0.56849164     0.77100
C1090       C  0.01073808  0.74906472  0.49527315     0.77100
C1091       C  0.00760878  0.84605519  0.53214745     0.77000
C1092       C  0.00807414  0.65198719  0.53168490     0.77000
O1093       O  0.32278445  0.98393899  0.55980662    -0.72200
O1094       O  0.32922892  0.48430992  0.50400592    -0.69200
O1095       O  0.32669038  0.55627828  0.53157088    -0.72200
O1096       O  0.32661488  0.91147904  0.53235781    -0.72200
O1097       O  0.24358312  0.91159562  0.53110177    -0.72200
O1098       O  0.24368049  0.55654166  0.53002391    -0.72200
O1099       O  0.24710276  0.98345365  0.50362084    -0.72200
O1100       O  0.24111731  0.48484693  0.55734711    -0.72400
V1101       V  0.32486814  0.98401604  0.53238161     1.35200
V1102       V  0.24517347  0.98407897  0.53089510     1.35200
C1103       C  0.28004482  0.98509855  0.56834363     0.77100
C1104       C  0.28961192  0.98407739  0.49499858     0.77100
C1105       C  0.28517937  0.58099576  0.53087743     0.77000
C1106       C  0.28510288  0.88693479  0.53171285     0.77000
O1107       O  0.32247014  0.73342140  0.55955502    -0.72200
O1108       O  0.32994665  0.73441305  0.50471018    -0.72400
O1109       O  0.32651416  0.80631528  0.53238447    -0.72200
O1110       O  0.32654578  0.66138927  0.53190870    -0.72200
O1111       O  0.24353470  0.66152742  0.53045524    -0.72200
O1112       O  0.24353946  0.80656219  0.53065318    -0.72200
O1113       O  0.24697252  0.73428016  0.50333695    -0.72200
O1114       O  0.23974149  0.73415120  0.55776814    -0.72400
V1115       V  0.32479761  0.73384722  0.53211345     1.35200
V1116       V  0.24511183  0.73405655  0.53058254     1.35200
C1117       C  0.27962019  0.73439809  0.56804326     0.77100
C1118       C  0.28944233  0.73465330  0.49471599     0.77100
C1119       C  0.28505509  0.83103653  0.53159728     0.77000
C1120       C  0.28508363  0.63686700  0.53108636     0.77000
C1121       C  0.24062958  0.72710364  0.09659962    -0.26700
C1122       C  0.26366229  0.68312957  0.08886997    -0.14800
C1123       C  0.28535367  0.64676769  0.10150437     0.35900
C1124       C  0.28320792  0.65537994  0.12149013    -0.26100
C1125       C  0.26090698  0.69995269  0.12915460    -0.15400
C1126       C  0.23934472  0.73621895  0.11645859     0.36900
N1127       N  0.21512419  0.78171861  0.12367754    -0.89600
H1128       H  0.22367822  0.75501526  0.08702041     0.18100
H1129       H  0.30013031  0.62760459  0.13113335     0.18000
N1130       N  0.31175242  0.60273518  0.09410357    -0.88700
H1131       H  0.19678591  0.80153567  0.11260005     0.35400
H1132       H  0.24399409  0.80596626  0.12862214     0.40500
H1133       H  0.28473911  0.57905722  0.08760903     0.40100
H1134       H  0.32779612  0.58141066  0.10528674     0.35000
C1135       C  0.21233609  0.51357936  0.12010533    -0.26700
C1136       C  0.24646760  0.48038424  0.12941963    -0.14800
C1137       C  0.26518224  0.00965462  0.11674264     0.35900
C1138       C  0.26203964  0.01796030  0.09695423    -0.26100
C1139       C  0.23456377  0.47700856  0.08909933    -0.15400
C1140       C  0.20613035  0.51237940  0.10017345     0.36900
N1141       N  0.16983094  0.54670457  0.09169195    -0.89600
H1142       H  0.18982330  0.54043482  0.12842322     0.18100
H1143       H  0.27899981  0.98992704  0.08742108     0.18000
N1144       N  0.29154839  0.96475446  0.12316091    -0.88700
H1145       H  0.18896732  0.57186526  0.08257969     0.35400
H1146       H  0.14362660  0.52540313  0.08366586     0.40500
H1147       H  0.32064062  0.97561571  0.13262023     0.40100
H1148       H  0.26576392  0.94086448  0.13021618     0.35000
C1149       C  0.99381350  0.72922882  0.09660653    -0.26700
C1150       C  0.51325750  0.68436300  0.08870944    -0.14800
C1151       C  0.53039237  0.64600200  0.10149254     0.35900
C1152       C  0.52864821  0.65498240  0.12145390    -0.26100
C1153       C  0.51079487  0.70161847  0.12902346    -0.15400
C1154       C  0.99246396  0.73840618  0.11647301     0.36900
N1155       N  0.97289062  0.78625166  0.12352774    -0.89600
H1156       H  0.98039714  0.75883863  0.08696614     0.18100
H1157       H  0.54214209  0.62555677  0.13116175     0.18000
N1158       N  0.55125735  0.59893915  0.09427864    -0.88700
H1159       H  0.95723804  0.80783973  0.11233952     0.35400
H1160       H  0.00397477  0.80730390  0.12864660     0.40500
H1161       H  0.52147982  0.57893714  0.08774909     0.40100
H1162       H  0.56407785  0.57589237  0.10556162     0.35000
C1163       C  0.01679702  0.01138284  0.11797625    -0.26700
C1164       C  0.99370247  0.48297328  0.12967681    -0.14800
C1165       C  0.45499793  0.50944303  0.11952849     0.35900
C1166       C  0.45107006  0.50489376  0.09956284    -0.26100
C1167       C  0.98560078  0.47507668  0.08935655    -0.15400
C1168       C  0.01517865  0.01556055  0.09796370     0.36900
N1169       N  0.04167579  0.97752121  0.08699140    -0.89600
H1170       H  0.03703225  0.97933158  0.12428565     0.18100
H1171       H  0.42042082  0.52462454  0.09212858     0.18000
N1172       N  0.41722973  0.53907960  0.12944281    -0.88700
H1173       H  0.01525157  0.95693255  0.07883719     0.35400
H1174       H  0.06765841  0.99568576  0.07788934     0.40500
H1175       H  0.39973347  0.51589580  0.13971914     0.40100
H1176       H  0.43538042  0.56940764  0.13641726     0.35000
C1177       C  0.31780721  0.77049993  0.34769788    -0.26700
C1178       C  0.27898805  0.74331547  0.33818561    -0.14800
C1179       C  0.24520243  0.71302869  0.34924021     0.35900
C1180       C  0.25031786  0.71144144  0.36925580    -0.26100
C1181       C  0.28856528  0.73921084  0.37881104    -0.15400
C1182       C  0.32260766  0.76923720  0.36777235     0.36900
N1183       N  0.36086518  0.80065165  0.37652979    -0.89600
H1184       H  0.34404624  0.79385460  0.33949327     0.18100
H1185       H  0.22423934  0.68785358  0.37743803     0.18000
N1186       N  0.20642666  0.68202658  0.34056614    -0.88700
H1187       H  0.38606424  0.77725738  0.38412170     0.35400
H1188       H  0.34299557  0.82554641  0.38617060     0.40500
H1189       H  0.22363329  0.65762981  0.33058129     0.40100
H1190       H  0.18035400  0.70571906  0.33349904     0.35000
C1191       C  0.24939890  0.52027869  0.34911467    -0.26700
C1192       C  0.28785491  0.49665584  0.33824319    -0.14800
C1193       C  0.32700039  0.97201640  0.34776081     0.35900
C1194       C  0.32885967  0.97198660  0.36803070    -0.26100
C1195       C  0.28833222  0.99167299  0.37904492    -0.15400
C1196       C  0.25066896  0.51986285  0.36923657     0.36900
N1197       N  0.21161952  0.54608367  0.37994262    -0.89600
H1198       H  0.21827783  0.53965926  0.34184427     0.18100
H1199       H  0.36155996  0.95529624  0.37526217     0.18000
N1200       N  0.36820042  0.94997550  0.33690303    -0.88700
H1201       H  0.18473265  0.56264778  0.37071815     0.35400
H1202       H  0.22915046  0.57620069  0.38729420     0.40500
H1203       H  0.35390173  0.91775173  0.32983594     0.40100
H1204       H  0.39716429  0.93696851  0.34604269     0.35000
C1205       C  0.05527246  0.73571537  0.34842648    -0.26700
C1206       C  0.50159511  0.75087430  0.33840545    -0.14800
C1207       C  0.46838365  0.71954861  0.34920499     0.35900
C1208       C  0.46995321  0.72158392  0.36941595    -0.26100
C1209       C  0.50350650  0.75452546  0.37915698    -0.15400
C1210       C  0.05739650  0.73440479  0.36861726     0.36900
N1211       N  0.10375582  0.71890271  0.37808621    -0.89600
H1212       H  0.08889721  0.72509873  0.34030306     0.18100
H1213       H  0.44484107  0.69713106  0.37766201     0.18000
N1214       N  0.43461129  0.68434099  0.33970439    -0.88700
H1215       H  0.13259122  0.71179656  0.36807784     0.35400
H1216       H  0.09654141  0.68410196  0.38492007     0.40500
H1217       H  0.40641278  0.70577150  0.33274575     0.40100
H1218       H  0.41547220  0.66169810  0.34973695     0.35000
C1219       C  0.47015289  0.02776409  0.34783885    -0.26700
C1220       C  0.50336860  0.50006386  0.33889938    -0.14800
C1221       C  0.06054171  0.50332937  0.34992254     0.35900
C1222       C  0.05817447  0.50345573  0.36999308    -0.26100
C1223       C  0.49958100  0.50534055  0.37945728    -0.15400
C1224       C  0.46842204  0.03137548  0.36788193     0.36900
N1225       N  0.43080106  0.06443545  0.37623414    -0.89600
H1226       H  0.44244928  0.04911592  0.33946708     0.18100
H1227       H  0.09343964  0.50815789  0.37797710     0.18000
N1228       N  0.10968818  0.50977458  0.34123293    -0.88700
H1229       H  0.44935207  0.09110786  0.38497644     0.35400
H1230       H  0.40590220  0.04274473  0.38459857     0.40500
H1231       H  0.10872600  0.54205925  0.33241521     0.40100
H1232       H  0.11821595  0.47738624  0.33305156     0.35000
C1233       C  0.27819886  0.65274520  0.84617273    -0.26700
C1234       C  0.24639579  0.69148870  0.83877028    -0.14800
C1235       C  0.21745506  0.72152040  0.85170723     0.35900
C1236       C  0.22248326  0.71375802  0.87146715    -0.26100
C1237       C  0.25546904  0.67630432  0.87892266    -0.15400
C1238       C  0.28308049  0.64489871  0.86603632     0.36900
N1239       N  0.31795291  0.60646830  0.87264750    -0.89600
H1240       H  0.30046706  0.62921690  0.83646596     0.18100
H1241       H  0.20028369  0.73745611  0.88114147     0.18000
N1242       N  0.18164147  0.75931770  0.84527025    -0.88700
H1243       H  0.29762437  0.57953627  0.88061204     0.35400
H1244       H  0.34501327  0.62375375  0.88158921     0.40500
H1245       H  0.15589829  0.74206683  0.83578273     0.40100
H1246       H  0.20132361  0.78826713  0.83812318     0.35000
C1247       C  0.20792514  0.51484276  0.86955901    -0.26700
C1248       C  0.23812304  0.47887135  0.87933226    -0.14800
C1249       C  0.27112482  0.03321269  0.87026861     0.35900
C1250       C  0.27208025  0.02952205  0.85016987    -0.26100
C1251       C  0.24239699  0.48678004  0.83884511    -0.15400
C1252       C  0.20979316  0.51936771  0.84945400     0.36900
N1253       N  0.17707596  0.55537031  0.83980058    -0.89600
H1254       H  0.18252129  0.53943482  0.87767851     0.18100
H1255       H  0.29540076  0.00023654  0.84348717     0.18000
N1256       N  0.30216633  0.99928354  0.88161741    -0.88700
H1257       H  0.15329570  0.57399382  0.84962838     0.35400
H1258       H  0.20023431  0.58371762  0.83389176     0.40500
H1259       H  0.27780094  0.97267202  0.88798875     0.40100
H1260       H  0.32668391  0.97805650  0.87285026     0.35000
C1261       C  0.02983731  0.72662751  0.84951691    -0.26700
C1262       C  0.50204256  0.69278278  0.83847227    -0.14800
C1263       C  0.47600745  0.65235346  0.84765020     0.35900
C1264       C  0.48140149  0.64573845  0.86766459    -0.26100
C1265       C  0.51226151  0.67869300  0.87860736    -0.15400
C1266       C  0.03595481  0.72069468  0.86940381     0.36900
N1267       N  0.06700353  0.75620097  0.88001201    -0.89600
H1268       H  0.04845743  0.75830556  0.84238451     0.18100
H1269       H  0.46017637  0.61582631  0.87483803     0.18000
N1270       N  0.44301855  0.61930356  0.83677866    -0.88700
H1271       H  0.08171886  0.78440118  0.87095922     0.35400
H1272       H  0.09838335  0.73597977  0.88541425     0.40500
H1273       H  0.41274844  0.64148097  0.83157014     0.40100
H1274       H  0.42687826  0.59148981  0.84565669     0.35000
C1275       C  0.45519004  0.03193106  0.87036107    -0.26700
C1276       C  0.99003213  0.47661576  0.87973261    -0.14800
C1277       C  0.02150261  0.51262039  0.87039138     0.35900
C1278       C  0.02223871  0.51447870  0.85023152    -0.26100
C1279       C  0.99345855  0.48006668  0.83920094    -0.15400
C1280       C  0.45589429  0.02576288  0.85033560     0.36900
N1281       N  0.42399697  0.98793826  0.84135049    -0.89600
H1282       H  0.43074426  0.00765589  0.87895632     0.18100
H1283       H  0.04602326  0.54244036  0.84307445     0.18000
N1284       N  0.05344564  0.54638546  0.88141058    -0.88700
H1285       H  0.40350617  0.96743338  0.85164098     0.35400
H1286       H  0.39703268  0.00723270  0.83294170     0.40500
H1287       H  0.08025626  0.52391909  0.88870137     0.40100
H1288       H  0.07416103  0.57057564  0.87238519     0.35000
C1289       C  0.22922327  0.75418919  0.61902045    -0.26700
C1290       C  0.27227345  0.74261374  0.63029070    -0.14800
C1291       C  0.31765274  0.72662300  0.62089296     0.35900
C1292       C  0.31906334  0.72410225  0.60066308    -0.26100
C1293       C  0.27612278  0.73648432  0.58944213    -0.15400
C1294       C  0.23063068  0.75123969  0.59889161     0.36900
N1295       N  0.18563104  0.76389926  0.58816199    -0.89600
H1296       H  0.19394321  0.76586054  0.62586296     0.18100
H1297       H  0.35395498  0.71198016  0.59363189     0.18000
N1298       N  0.36171997  0.71141995  0.63182018    -0.88700
H1299       H  0.17501637  0.80131726  0.59163306     0.35400
H1300       H  0.15633242  0.73942092  0.59251839     0.40500
H1301       H  0.37616357  0.74426045  0.63834257     0.40100
H1302       H  0.39062724  0.69790384  0.62278863     0.35000
C1303       C  0.23532923  0.51100953  0.61813393    -0.26700
C1304       C  0.27254104  0.98858826  0.63062398    -0.14800
C1305       C  0.31679412  0.97007620  0.62111492     0.35900
C1306       C  0.31847393  0.96961062  0.60085360    -0.26100
C1307       C  0.27689103  0.98659813  0.58974193    -0.15400
C1308       C  0.23683061  0.50929059  0.59804209     0.36900
N1309       N  0.19544597  0.53081058  0.58727183    -0.89600
H1310       H  0.20260713  0.52859502  0.62503149     0.18100
H1311       H  0.35234678  0.95527360  0.59370026     0.18000
N1312       N  0.35918331  0.95007474  0.63190861    -0.88700
H1313       H  0.19154127  0.56918911  0.59120250     0.35400
H1314       H  0.16211249  0.51148895  0.59114680     0.40500
H1315       H  0.37651025  0.98079649  0.63886485     0.40100
H1316       H  0.38694839  0.93489625  0.62273756     0.35000
C1317       C  0.45944618  0.79170409  0.62048139    -0.26700
C1318       C  0.00030604  0.75261229  0.63049974    -0.14800
C1319       C  0.04186627  0.77379092  0.62031045     0.35900
C1320       C  0.04239925  0.77144594  0.60013517    -0.26100
C1321       C  0.00216438  0.74895708  0.58981444    -0.15400
C1322       C  0.45648285  0.79053940  0.60026832     0.36900
N1323       N  0.42130425  0.82358589  0.59035613    -0.89600
H1324       H  0.43439033  0.81698361  0.62844966     0.18100
H1325       H  0.07393727  0.78838077  0.59238187     0.18000
N1326       N  0.08291311  0.79851529  0.63041955    -0.88700
H1327       H  0.40190416  0.84704514  0.60008880     0.35400
H1328       H  0.39349193  0.80058590  0.58394472     0.40500
H1329       H  0.06768106  0.83068556  0.63726422     0.40100
H1330       H  0.11036606  0.81202056  0.62080344     0.35000
C1331       C  0.03681317  0.52796475  0.62045260    -0.26700
C1332       C  0.99991410  0.49834905  0.62987688    -0.14800
C1333       C  0.46295899  0.04355171  0.61980987     0.35900
C1334       C  0.46274209  0.04187530  0.59959140    -0.26100
C1335       C  0.00375205  0.50117755  0.58941890    -0.15400
C1336       C  0.03847085  0.53047872  0.60032471     0.36900
N1337       N  0.07410677  0.56388394  0.59094613    -0.89600
H1338       H  0.06361611  0.55028358  0.62884838     0.18100
H1339       H  0.44137570  0.07028282  0.59158114     0.18000
N1340       N  0.43633348  0.08378404  0.62971988    -0.88700
H1341       H  0.09644130  0.58321236  0.60106377     0.35400
H1342       H  0.05297185  0.59181470  0.58369246     0.40500
H1343       H  0.40593696  0.06747172  0.63721098     0.40100
H1344       H  0.41992933  0.10907417  0.61987521     0.35000
O1345       O  0.95742946  0.49617944  0.66017771    -0.72200
O1346       O  0.95491999  0.00490370  0.71551305    -0.72400
O1347       O  0.95775503  0.07115930  0.68650723    -0.72200
O1348       O  0.95763550  0.42531396  0.68788792    -0.72200
O1349       O  0.53477734  0.43696268  0.68715195    -0.72200
O1350       O  0.53560061  0.08214268  0.68650691    -0.72200
O1351       O  0.53657398  0.50902646  0.71454365    -0.72200
O1352       O  0.53474120  0.00557381  0.66061594    -0.72400
V1353       V  0.95851525  0.99879026  0.68833816     1.35200
V1354       V  0.53407961  0.00975961  0.68799102     1.35200
C1355       C  0.49284558  0.00718711  0.65150315     0.77100
C1356       C  0.49554815  0.50765022  0.72409429     0.77100
C1357       C  0.99941763  0.09539402  0.68756417     0.77000
C1358       C  0.99949434  0.40115445  0.68764108     0.77000
O1359       O  0.53343522  0.25814815  0.65932423    -0.72200
O1360       O  0.53714500  0.26065469  0.71383803    -0.72400
O1361       O  0.53550609  0.18717734  0.68689920    -0.72200
O1362       O  0.53494814  0.33211598  0.68619779    -0.72200
O1363       O  0.95855708  0.32075140  0.68755130    -0.72200
O1364       O  0.95843199  0.17605246  0.68710962    -0.72200
O1365       O  0.95699720  0.24833866  0.71467678    -0.72200
O1366       O  0.96080265  0.24894976  0.66010022    -0.72400
V1367       V  0.53365703  0.25960139  0.68658074     1.35200
V1368       V  0.96028273  0.24843552  0.68739085     1.35200
C1369       C  0.49133667  0.25909775  0.65041129     0.77100
C1370       C  0.99810763  0.24978744  0.72422344     0.77100
C1371       C  0.99983134  0.15124533  0.68768940     0.77000
C1372       C  0.00001310  0.34532149  0.68766475     0.77000
O1373       O  0.68165457  0.51045848  0.66193081    -0.72200
O1374       O  0.69418178  0.01103189  0.71661946    -0.72400
O1375       O  0.68915934  0.08159336  0.68882946    -0.72200
O1376       O  0.68861352  0.43613369  0.68847199    -0.72200
O1377       O  0.77152328  0.43605137  0.68630462    -0.72200
O1378       O  0.77189660  0.08121326  0.68594957    -0.72200
O1379       O  0.77837637  0.50819441  0.71348466    -0.72200
O1380       O  0.76675973  0.00531115  0.66006336    -0.72400
V1381       V  0.69028990  0.50859114  0.68905187     1.35200
V1382       V  0.76976631  0.50839690  0.68630315     1.35200
C1383       C  0.72061100  0.50909530  0.65121722     0.77100
C1384       C  0.73928069  0.50594211  0.72408727     0.77100
C1385       C  0.73055154  0.10597307  0.68718657     0.77000
C1386       C  0.73011776  0.41154678  0.68734502     0.77000
O1387       O  0.76581803  0.25896051  0.65879978    -0.72200
O1388       O  0.77846442  0.25882659  0.71300972    -0.72400
O1389       O  0.77208075  0.18630056  0.68581209    -0.72200
O1390       O  0.77181286  0.33126371  0.68592234    -0.72200
O1391       O  0.68902485  0.33120232  0.68865330    -0.72200
O1392       O  0.68921724  0.18643629  0.68817860    -0.72200
O1393       O  0.69562692  0.25823194  0.71562500    -0.72200
O1394       O  0.68318137  0.25960986  0.66119328    -0.72400
V1395       V  0.77041408  0.25880450  0.68592792     1.35200
V1396       V  0.69085563  0.25882978  0.68837469     1.35200
C1397       C  0.72259624  0.25953140  0.65067697     0.77100
C1398       C  0.73920409  0.25862964  0.72350005     0.77100
C1399       C  0.73063150  0.16179951  0.68697968     0.77000
C1400       C  0.73032499  0.35577896  0.68729567     0.77000
O1401       O  0.99355620  0.44396833  0.80769733    -0.72200
O1402       O  0.49823271  0.46010854  0.75293044    -0.72400
O1403       O  0.56906036  0.45448835  0.78075163    -0.72200
O1404       O  0.92292207  0.45015929  0.77991560    -0.72200
O1405       O  0.92110679  0.07444361  0.77949455    -0.72200
O1406       O  0.56553028  0.07812243  0.77961963    -0.72200
O1407       O  0.99254821  0.06033413  0.75230062    -0.72200
O1408       O  0.49315497  0.08787138  0.80674309    -0.72400
V1409       V  0.49665879  0.45534044  0.78013825     1.35200
V1410       V  0.49305928  0.07613507  0.77972190     1.35200
C1411       C  0.49090306  0.05007408  0.81802333     0.77100
C1412       C  0.49650984  0.50353249  0.74504367     0.77100
C1413       C  0.59319900  0.49618182  0.78172221     0.77000
C1414       C  0.89908068  0.49208533  0.78138923     0.77000
O1415       O  0.99606621  0.22430907  0.80967415    -0.72200
O1416       O  0.49899593  0.21976144  0.75402683    -0.72400
O1417       O  0.57062149  0.22215352  0.78179050    -0.72200
O1418       O  0.92500738  0.21968078  0.78184168    -0.72200
O1419       O  0.92576326  0.30271509  0.78065772    -0.72200
O1420       O  0.57036129  0.30513283  0.78009167    -0.72200
O1421       O  0.99681361  0.29652907  0.75317798    -0.72200
O1422       O  0.49920746  0.30742459  0.80758684    -0.72400
V1423       V  0.99750913  0.22055177  0.78245755     1.35200
V1424       V  0.99822003  0.30017511  0.78037356     1.35200
C1425       C  0.99787187  0.26738846  0.81790058     0.77100
C1426       C  0.99747484  0.25334207  0.74507708     0.77100
C1427       C  0.59506056  0.26366524  0.78109762     0.77000
C1428       C  0.90080406  0.26145530  0.78098268     0.77000
O1429       O  0.74742904  0.44928487  0.80779513    -0.72200
O1430       O  0.74326128  0.45885143  0.75319196    -0.72400
O1431       O  0.81791156  0.45260348  0.77981145    -0.72200
O1432       O  0.67331820  0.45460099  0.78116693    -0.72200
O1433       O  0.67086095  0.07770888  0.77925535    -0.72200
O1434       O  0.81598469  0.07612377  0.77972274    -0.72200
O1435       O  0.74364711  0.06609399  0.75248859    -0.72200
O1436       O  0.74255965  0.08801787  0.80646946    -0.72400
V1437       V  0.74560043  0.45544200  0.78051745     1.35200
V1438       V  0.74336384  0.07540025  0.77956135     1.35200
C1439       C  0.74367740  0.05077248  0.81800650     0.77100
C1440       C  0.74071647  0.02149538  0.74559927     0.77100
C1441       C  0.84014865  0.03446788  0.78141081     0.77000
C1442       C  0.64606775  0.03708764  0.78220104     0.77000
O1443       O  0.75151374  0.22388909  0.80848007    -0.72200
O1444       O  0.74396465  0.21904692  0.75403229    -0.72400
O1445       O  0.82010805  0.22068650  0.78023849    -0.72200
O1446       O  0.67534943  0.22194733  0.78238599    -0.72200
O1447       O  0.67557861  0.30486649  0.78033298    -0.72200
O1448       O  0.82060283  0.30378262  0.78035324    -0.72200
O1449       O  0.74733729  0.30206472  0.75308650    -0.72200
O1450       O  0.74837686  0.30670081  0.80754499    -0.72400
V1451       V  0.74774129  0.22297914  0.78125770     1.35200
V1452       V  0.74804473  0.30274745  0.78033498     1.35200
C1453       C  0.75080210  0.26612141  0.81731608     0.77100
C1454       C  0.74399740  0.25987437  0.74436529     0.77100
C1455       C  0.84494407  0.26201705  0.78044916     0.77000
C1456       C  0.65089077  0.26352982  0.78133831     0.77000
O1457       O  0.96937206  0.99448446  0.30867092    -0.72200
O1458       O  0.96590987  0.49460930  0.25441069    -0.72400
O1459       O  0.96773345  0.42367789  0.28209915    -0.72200
O1460       O  0.96465610  0.06805118  0.28183646    -0.72200
O1461       O  0.54431138  0.06996291  0.28119199    -0.72200
O1462       O  0.54351555  0.42381920  0.28093696    -0.72200
O1463       O  0.54275768  0.00130648  0.25274523    -0.72200
O1464       O  0.54484006  0.49580815  0.30832499    -0.72400
V1465       V  0.96713673  0.99553114  0.28136499     1.35200
V1466       V  0.54336879  0.99753545  0.28006872     1.35200
C1467       C  0.01193761  0.99470707  0.31736889     0.77100
C1468       C  0.00182029  0.00025096  0.24416777     0.77100
C1469       C  0.00890351  0.39848723  0.28162892     0.77000
C1470       C  0.00597364  0.09290179  0.28122510     0.77000
O1471       O  0.54133732  0.24839870  0.30858550    -0.72200
O1472       O  0.54477641  0.24678378  0.25406902    -0.72400
O1473       O  0.54281119  0.31958193  0.28110724    -0.72200
O1474       O  0.54345552  0.17486554  0.28167720    -0.72200
O1475       O  0.96451896  0.17364326  0.28096188    -0.72200
O1476       O  0.96618896  0.31869161  0.28182853    -0.72200
O1477       O  0.96521056  0.24764671  0.25411102    -0.72200
O1478       O  0.96531091  0.24484362  0.30856557    -0.72400
V1479       V  0.54146280  0.24729216  0.28133935     1.35200
V1480       V  0.96690920  0.24616401  0.28135633     1.35200
C1481       C  0.00663766  0.24436500  0.31797694     0.77100
C1482       C  0.00675014  0.24784446  0.24491256     0.77100
C1483       C  0.00807242  0.34268054  0.28176259     0.77000
C1484       C  0.00591784  0.14870355  0.28112704     0.77000
O1485       O  0.68886550  0.00293359  0.30674975    -0.72200
O1486       O  0.70255489  0.49976486  0.25288531    -0.72400
O1487       O  0.69711913  0.42961237  0.28066683    -0.72200
O1488       O  0.69473969  0.07544872  0.27963683    -0.72200
O1489       O  0.77746597  0.07452938  0.28265886    -0.72200
O1490       O  0.78012250  0.42976020  0.28236693    -0.72200
O1491       O  0.78209049  0.00522348  0.25449616    -0.72200
O1492       O  0.77380447  0.50194355  0.30975858    -0.72400
V1493       V  0.69572916  0.00288018  0.27954525     1.35200
V1494       V  0.77533638  0.00219151  0.28170374     1.35200
C1495       C  0.72842378  0.00167839  0.31721570     0.77100
C1496       C  0.74225134  0.00633669  0.24420786     0.77100
C1497       C  0.73872967  0.40514266  0.28140560     0.77000
C1498       C  0.73637446  0.09956986  0.28114807     0.77000
O1499       O  0.77227475  0.25339553  0.30947605    -0.72200
O1500       O  0.78687938  0.25123179  0.25519417    -0.72400
O1501       O  0.78015453  0.32454197  0.28211474    -0.72200
O1502       O  0.77868950  0.17952372  0.28271674    -0.72200
O1503       O  0.69614789  0.18044503  0.27903123    -0.72200
O1504       O  0.69728905  0.32514379  0.27963295    -0.72200
O1505       O  0.70417567  0.25360667  0.25211034    -0.72200
O1506       O  0.68974789  0.25227415  0.30641201    -0.72400
V1507       V  0.77791624  0.25207524  0.28230332     1.35200
V1508       V  0.69847029  0.25280018  0.27932676     1.35200
C1509       C  0.72857411  0.25343391  0.31722939     0.77100
C1510       C  0.74795406  0.25280126  0.24445950     0.77100
C1511       C  0.73879599  0.34938452  0.28104592     0.77000
C1512       C  0.73710668  0.15541146  0.28099078     0.77000
O1513       O  0.97082808  0.49817757  0.41061936    -0.72200
O1514       O  0.97003564  0.99779027  0.46526800    -0.72400
O1515       O  0.97024451  0.07055293  0.43819978    -0.72200
O1516       O  0.97074282  0.42572411  0.43774334    -0.72200
O1517       O  0.53794175  0.43333622  0.43787174    -0.72200
O1518       O  0.54182355  0.07865190  0.43722606    -0.72200
O1519       O  0.53721810  0.50672165  0.46488324    -0.72200
O1520       O  0.54408838  0.00447460  0.41029422    -0.72400
V1521       V  0.97204297  0.99809762  0.43800711     1.35200
V1522       V  0.54043898  0.00608735  0.43766097     1.35200
C1523       C  0.01178808  0.99883144  0.40129927     0.77100
C1524       C  0.49752789  0.00658100  0.47385787     0.77100
C1525       C  0.01177076  0.09509004  0.43829728     0.77000
C1526       C  0.01220934  0.40090485  0.43764730     0.77000
O1527       O  0.54106414  0.25724442  0.41015845    -0.72200
O1528       O  0.53796661  0.25612310  0.46473352    -0.72400
O1529       O  0.54075830  0.18409756  0.43719433    -0.72200
O1530       O  0.53837476  0.32902406  0.43768535    -0.72200
O1531       O  0.97047981  0.32051695  0.43749888    -0.72200
O1532       O  0.97025760  0.17555931  0.43826640    -0.72200
O1533       O  0.97009138  0.24904999  0.46507203    -0.72200
O1534       O  0.97072169  0.24655169  0.41067392    -0.72400
V1535       V  0.53793963  0.25660339  0.43742682     1.35200
V1536       V  0.97201134  0.24798417  0.43788140     1.35200
C1537       C  0.01221164  0.24560769  0.40138373     0.77100
C1538       C  0.01148530  0.24886787  0.47442758     0.77100
C1539       C  0.01178552  0.15088284  0.43832931     0.77000
C1540       C  0.01206861  0.34498443  0.43761231     0.77000
O1541       O  0.66948669  0.51584607  0.40934640    -0.72200
O1542       O  0.66477068  0.01632595  0.46388968    -0.72400
O1543       O  0.66816716  0.08883352  0.43654311    -0.72200
O1544       O  0.66680244  0.44304268  0.43648929    -0.72200
O1545       O  0.74974988  0.44365813  0.43842997    -0.72200
O1546       O  0.75124671  0.08766171  0.43710693    -0.72200
O1547       O  0.74588521  0.51725918  0.46529488    -0.72200
O1548       O  0.75262752  0.01349186  0.41033410    -0.72400
V1549       V  0.66767913  0.51556066  0.43671873     1.35200
V1550       V  0.74741418  0.51609179  0.43808142     1.35200
C1551       C  0.71218191  0.51484214  0.40080667     0.77100
C1552       C  0.70350547  0.51661969  0.47396191     0.77100
C1553       C  0.70999799  0.11284398  0.43679270     0.77000
C1554       C  0.70854273  0.41876361  0.43733252     0.77000
O1555       O  0.67243983  0.26460100  0.40869955    -0.72200
O1556       O  0.66490670  0.26646730  0.46338298    -0.72400
O1557       O  0.66792702  0.33807409  0.43579729    -0.72200
O1558       O  0.66875415  0.19329629  0.43629281    -0.72200
O1559       O  0.75181451  0.19337183  0.43729389    -0.72200
O1560       O  0.75084124  0.33854185  0.43793401    -0.72200
O1561       O  0.74791866  0.26536345  0.46472112    -0.72200
O1562       O  0.75516534  0.26676752  0.41046061    -0.72400
V1563       V  0.67008285  0.26564971  0.43605768     1.35200
V1564       V  0.74979129  0.26599624  0.43756986     1.35200
C1565       C  0.71528285  0.26556183  0.40025370     0.77100
C1566       C  0.70545689  0.26607864  0.47331136     0.77100
C1567       C  0.70914884  0.36289636  0.43700344     0.77000
C1568       C  0.71031526  0.16873628  0.43677706     0.77000
O1569       O  0.48319364  0.10959206  0.05980286    -0.72200
O1570       O  0.98291278  0.11601560  0.00503685    -0.72400
O1571       O  0.91074386  0.11157593  0.03253689    -0.72200
O1572       O  0.55547328  0.11401119  0.03246537    -0.72200
O1573       O  0.55296342  0.43130207  0.03123303    -0.72200
O1574       O  0.90822431  0.43176301  0.03214067    -0.72200
O1575       O  0.47939663  0.43073797  0.00429525    -0.72200
O1576       O  0.98255135  0.43252961  0.05901629    -0.72400
V1577       V  0.48296190  0.11219413  0.03235703     1.35200
V1578       V  0.48053490  0.43311404  0.03161202     1.35200
C1579       C  0.48557094  0.06657936  0.06812240     0.77100
C1580       C  0.48276232  0.07687904  0.99499741     0.77100
C1581       C  0.88609416  0.07026020  0.03154541     0.77000
C1582       C  0.58019858  0.07257211  0.03157877     0.77000
O1583       O  0.01809836  0.31088041  0.05904577    -0.72200
O1584       O  0.02081654  0.31449532  0.00437756    -0.72400
O1585       O  0.94735449  0.31300709  0.03123001    -0.72200
O1586       O  0.59231518  0.31320445  0.03141994    -0.72200
O1587       O  0.59260292  0.23015589  0.03048674    -0.72200
O1588       O  0.94748693  0.22992361  0.03078689    -0.72200
O1589       O  0.02014813  0.23144549  0.00370627    -0.72200
O1590       O  0.01973505  0.22805564  0.05811090    -0.72400
V1591       V  0.01973868  0.31124688  0.03169249     1.35200
V1592       V  0.01999725  0.23147413  0.03092623     1.35200
C1593       C  0.01824082  0.26865789  0.06791620     0.77100
C1594       C  0.02039721  0.27341935  0.99477747     0.77100
C1595       C  0.92284885  0.27150770  0.03093649     0.77000
C1596       C  0.61704817  0.27171596  0.03097224     0.77000
O1597       O  0.73341898  0.10929666  0.05978916    -0.72200
O1598       O  0.73338952  0.11681545  0.00502400    -0.72400
O1599       O  0.66081848  0.11380912  0.03235397    -0.72200
O1600       O  0.80588815  0.11247003  0.03251180    -0.72200
O1601       O  0.80309213  0.43142348  0.03150773    -0.72200
O1602       O  0.65808200  0.43123332  0.03213911    -0.72200
O1603       O  0.72972887  0.43081201  0.00447693    -0.72200
O1604       O  0.73210944  0.43192083  0.05916929    -0.72400
V1605       V  0.73334479  0.11155903  0.03239768     1.35200
V1606       V  0.73063101  0.43292940  0.03182157     1.35200
C1607       C  0.73492533  0.06647574  0.06822672     0.77100
C1608       C  0.73238856  0.07626146  0.99511658     0.77100
C1609       C  0.63606099  0.07243816  0.03176613     0.77000
C1610       C  0.83021194  0.07077470  0.03149590     0.77000
O1611       O  0.76903569  0.31114063  0.05862381    -0.72200
O1612       O  0.77032773  0.31527410  0.00396246    -0.72400
O1613       O  0.69739237  0.31333675  0.03106793    -0.72200
O1614       O  0.84238522  0.31319115  0.03154967    -0.72200
O1615       O  0.84249603  0.23018194  0.03012863    -0.72200
O1616       O  0.69760966  0.23025128  0.03081086    -0.72200
O1617       O  0.76895396  0.23223884  0.00327574    -0.72200
O1618       O  0.77125631  0.22825486  0.05768167    -0.72400
V1619       V  0.76986446  0.31166527  0.03128892     1.35200
V1620       V  0.77007604  0.23188381  0.03048212     1.35200
C1621       C  0.77006062  0.26890412  0.06747057     0.77100
C1622       C  0.76933293  0.27425622  0.99435481     0.77100
C1623       C  0.67291552  0.27177834  0.03096273     0.77000
C1624       C  0.86701527  0.27164483  0.03084673     0.77000
O1625       O  0.99502311  0.07628638  0.16273087    -0.72200
O1626       O  0.49835252  0.05528993  0.21657457    -0.72400
O1627       O  0.56888079  0.06859963  0.18914239    -0.72200
O1628       O  0.92455618  0.06516943  0.19023576    -0.72200
O1629       O  0.92918802  0.44696058  0.18798429    -0.72200
O1630       O  0.57445272  0.44813026  0.18777542    -0.72200
O1631       O  0.00246916  0.44914311  0.21507247    -0.72200
O1632       O  0.50246977  0.44542826  0.16026812    -0.72400
V1633       V  0.49633114  0.06612673  0.18959051     1.35200
V1634       V  0.50208319  0.44940590  0.18753490     1.35200
C1635       C  0.49495229  0.04363374  0.15094827     0.77100
C1636       C  0.49854505  0.01024647  0.22312073     0.77100
C1637       C  0.59378468  0.02761888  0.18684915     0.77000
C1638       C  0.89967126  0.02447643  0.18755981     0.77000
O1639       O  0.00569902  0.30304131  0.16131014    -0.72200
O1640       O  0.50594587  0.29507066  0.21526934    -0.72400
O1641       O  0.57840087  0.30033753  0.18790640    -0.72200
O1642       O  0.93409810  0.29917233  0.18880955    -0.72200
O1643       O  0.93367725  0.21632841  0.18638808    -0.72200
O1644       O  0.57914425  0.21731510  0.18655051    -0.72200
O1645       O  0.00558843  0.21108511  0.21386045    -0.72200
O1646       O  0.50846591  0.22158673  0.15891992    -0.72400
V1647       V  0.00659205  0.29696607  0.18852141     1.35200
V1648       V  0.00624687  0.21730006  0.18669619     1.35200
C1649       C  0.00661520  0.26312248  0.15107944     0.77100
C1650       C  0.00663571  0.25106102  0.22401146     0.77100
C1651       C  0.60334073  0.25899418  0.18708005     0.77000
C1652       C  0.90927194  0.25793737  0.18761537     0.77000
O1653       O  0.74630449  0.07737501  0.16220484    -0.72200
O1654       O  0.74724355  0.05757741  0.21632256    -0.72400
O1655       O  0.81952338  0.06671499  0.18919453    -0.72200
O1656       O  0.67444759  0.06830828  0.18940250    -0.72200
O1657       O  0.67915701  0.44806907  0.18776242    -0.72200
O1658       O  0.82406188  0.44762226  0.18924186    -0.72200
O1659       O  0.74941851  0.45302452  0.21576694    -0.72200
O1660       O  0.75344695  0.44282603  0.16127936    -0.72400
V1661       V  0.74695997  0.06590717  0.18920911     1.35200
V1662       V  0.75160853  0.44948927  0.18848777     1.35200
C1663       C  0.74682648  0.03953798  0.15087888     0.77100
C1664       C  0.74543004  0.01315029  0.22339889     0.77100
C1665       C  0.84375876  0.02514409  0.18745255     0.77000
C1666       C  0.64961654  0.02747307  0.18693871     0.77000
O1667       O  0.75657272  0.30337328  0.16050081    -0.72200
O1668       O  0.75526324  0.29724493  0.21501494    -0.72400
O1669       O  0.82880398  0.29999089  0.18798146    -0.72200
O1670       O  0.68371029  0.30061136  0.18759800    -0.72200
O1671       O  0.68375826  0.21764965  0.18575075    -0.72200
O1672       O  0.82862281  0.21693192  0.18709904    -0.72200
O1673       O  0.75388358  0.21421679  0.21369062    -0.72200
O1674       O  0.75828251  0.22050956  0.15913601    -0.72400
V1675       V  0.75619608  0.29869315  0.18773835     1.35200
V1676       V  0.75617222  0.21894360  0.18643726     1.35200
C1677       C  0.75780622  0.26304300  0.15050119     0.77100
C1678       C  0.75312113  0.25474617  0.22356664     0.77100
C1679       C  0.85332938  0.25833041  0.18759045     0.77000
C1680       C  0.65916465  0.25915181  0.18676322     0.77000
O1681       O  0.48337005  0.43296030  0.90972600    -0.72200
O1682       O  0.98318491  0.43203116  0.96458776    -0.72400
O1683       O  0.91059593  0.43306239  0.93742152    -0.72200
O1684       O  0.55554506  0.43148119  0.93707796    -0.72200
O1685       O  0.55624044  0.11604603  0.93742263    -0.72200
O1686       O  0.91074169  0.11691622  0.93645276    -0.72200
O1687       O  0.48236579  0.11864936  0.96433992    -0.72200
O1688       O  0.98488832  0.11565142  0.90944145    -0.72400
V1689       V  0.48297553  0.43346286  0.93707674     1.35200
V1690       V  0.48381795  0.11515107  0.93691034     1.35200
C1691       C  0.48429002  0.07222854  0.90068057     0.77100
C1692       C  0.48308148  0.07748776  0.97387734     0.77100
C1693       C  0.88637406  0.07533833  0.93739958     0.77000
C1694       C  0.58053419  0.07428887  0.93726785     0.77000
O1695       O  0.51521308  0.23139979  0.90943915    -0.72200
O1696       O  0.02016701  0.23266328  0.96433142    -0.72400
O1697       O  0.94567506  0.23306909  0.93777236    -0.72200
O1698       O  0.59044205  0.23104572  0.93596766    -0.72200
O1699       O  0.59061041  0.31410594  0.93666168    -0.72200
O1700       O  0.94551400  0.31614116  0.93722240    -0.72200
O1701       O  0.51838092  0.31471359  0.96394586    -0.72200
O1702       O  0.01771668  0.31657402  0.91001703    -0.72400
V1703       V  0.01795165  0.23461307  0.93708290     1.35200
V1704       V  0.01813698  0.31442176  0.93728548     1.35200
C1705       C  0.01500658  0.27530168  0.90063198     0.77100
C1706       C  0.01976341  0.27404133  0.97372003     0.77100
C1707       C  0.92101523  0.27453570  0.93738255     0.77000
C1708       C  0.61513027  0.27245864  0.93635006     0.77000
O1709       O  0.73614913  0.43379752  0.90987701    -0.72200
O1710       O  0.73141678  0.43122999  0.96454217    -0.72400
O1711       O  0.66101639  0.43181047  0.93647793    -0.72200
O1712       O  0.80592702  0.43288942  0.93791855    -0.72200
O1713       O  0.80562897  0.11630024  0.93692383    -0.72200
O1714       O  0.66083932  0.11556112  0.93694392    -0.72200
O1715       O  0.73319931  0.11800551  0.96442362    -0.72200
O1716       O  0.73348099  0.11287760  0.90949956    -0.72400
V1717       V  0.73353523  0.43401042  0.93721184     1.35200
V1718       V  0.73322956  0.11415630  0.93696862     1.35200
C1719       C  0.73631842  0.07023817  0.90089636     0.77100
C1720       C  0.73247299  0.07690252  0.97402266     0.77100
C1721       C  0.63641300  0.07401785  0.93715235     0.77000
C1722       C  0.83053433  0.07499051  0.93767518     0.77000
O1723       O  0.76966820  0.22964604  0.90988189    -0.72200
O1724       O  0.76758596  0.23280807  0.96422196    -0.72400
O1725       O  0.69595068  0.23091814  0.93654351    -0.72200
O1726       O  0.84106612  0.23227212  0.93756873    -0.72200
O1727       O  0.84012096  0.31525706  0.93610182    -0.72200
O1728       O  0.69531622  0.31399095  0.93685923    -0.72200
O1729       O  0.76906676  0.31585030  0.96384221    -0.72200
O1730       O  0.76591519  0.31244764  0.90915568    -0.72400
V1731       V  0.76855641  0.23304720  0.93705044     1.35200
V1732       V  0.76768163  0.31281862  0.93648746     1.35200
C1733       C  0.76723802  0.27031496  0.90020456     0.77100
C1734       C  0.76861366  0.27457744  0.97329729     0.77100
C1735       C  0.67103240  0.27236840  0.93656812     0.77000
C1736       C  0.86517275  0.27405320  0.93701250     0.77000
O1737       O  0.53237895  0.50511556  0.55891659    -0.72200
O1738       O  0.53661978  0.00832049  0.50472196    -0.72400
O1739       O  0.53379546  0.07986833  0.53238433    -0.72200
O1740       O  0.53273915  0.43405705  0.53130687    -0.72200
O1741       O  0.96793325  0.42654459  0.53103071    -0.72200
O1742       O  0.96637847  0.07158619  0.53248585    -0.72200
O1743       O  0.96965889  0.49942527  0.50407896    -0.72200
O1744       O  0.96453596  0.99750294  0.55939090    -0.72400
V1745       V  0.53318149  0.00725764  0.53199054     1.35200
V1746       V  0.96795525  0.99900716  0.53207353     1.35200
C1747       C  0.49140968  0.00602937  0.56829302     0.77100
C1748       C  0.49580327  0.00691039  0.49500665     0.77100
C1749       C  0.49196041  0.10408633  0.53155166     0.77000
C1750       C  0.49092192  0.40998582  0.53127866     0.77000
O1751       O  0.52899190  0.25580042  0.55899159    -0.72200
O1752       O  0.53484820  0.25787618  0.50447675    -0.72400
O1753       O  0.53195530  0.32941321  0.53211061    -0.72200
O1754       O  0.53258049  0.18471645  0.53146939    -0.72200
O1755       O  0.96678318  0.17694890  0.53190576    -0.72200
O1756       O  0.96784429  0.32191739  0.53118150    -0.72200
O1757       O  0.96882016  0.24854923  0.50433008    -0.72200
O1758       O  0.96574110  0.25067731  0.55867183    -0.72400
V1759       V  0.53046480  0.25702555  0.53173654     1.35200
V1760       V  0.96893141  0.24947861  0.53152399     1.35200
C1761       C  0.48653184  0.25699596  0.56764138     0.77100
C1762       C  0.49419015  0.25697026  0.49463941     0.77100
C1763       C  0.49052372  0.35412147  0.53120281     0.77000
C1764       C  0.49124351  0.15997369  0.53130236     0.77000
O1765       O  0.74417220  0.51503244  0.55884368    -0.72200
O1766       O  0.74681377  0.01711685  0.50400516    -0.69200
O1767       O  0.74808075  0.08917991  0.53143226    -0.72200
O1768       O  0.74432442  0.44451836  0.53104143    -0.72200
O1769       O  0.66124466  0.44421827  0.53172736    -0.72200
O1770       O  0.66498253  0.08953513  0.53144041    -0.72200
O1771       O  0.66072162  0.51646194  0.50427922    -0.72200
O1772       O  0.66601102  0.01764151  0.55908112    -0.72400
V1773       V  0.74233522  0.51684332  0.53163434     1.35200
V1774       V  0.66252404  0.51684637  0.53167779     1.35200
C1775       C  0.70293667  0.51554753  0.56828540     0.77100
C1776       C  0.70236749  0.51719249  0.49506478     0.77100
C1777       C  0.70656371  0.11394126  0.53133685     0.77000
C1778       C  0.70297069  0.41978142  0.53126283     0.77000
O1779       O  0.74774020  0.26711401  0.55790921    -0.72200
O1780       O  0.74593387  0.26722581  0.50360629    -0.72400
O1781       O  0.74557284  0.33979345  0.53082488    -0.72200
O1782       O  0.74763826  0.19471905  0.53076934    -0.72200
O1783       O  0.66454929  0.19404915  0.53117047    -0.72200
O1784       O  0.66248167  0.33887062  0.53103900    -0.72200
O1785       O  0.66285624  0.26615294  0.50366383    -0.72200
O1786       O  0.66490855  0.26671798  0.55841616    -0.72400
V1787       V  0.74506305  0.26725604  0.53076348     1.35200
V1788       V  0.66527104  0.26646146  0.53105751     1.35200
C1789       C  0.70683577  0.26668144  0.56752362     0.77100
C1790       C  0.70438068  0.26651339  0.49436802     0.77100
C1791       C  0.70366492  0.36391728  0.53101741     0.77000
C1792       C  0.70632947  0.16980037  0.53108071     0.77000
C1793       C  0.73833628  0.30353008  0.09844782    -0.26700
C1794       C  0.76819632  0.26716975  0.08872613    -0.14800
C1795       C  0.79443413  0.22936531  0.09940793     0.35900
C1796       C  0.79010381  0.22897284  0.11952618    -0.26100
C1797       C  0.76018991  0.26528683  0.12925096    -0.15400
C1798       C  0.73338982  0.30265588  0.11855216     0.36900
N1799       N  0.69869665  0.33738288  0.12789358    -0.89600
H1800       H  0.71756149  0.33199181  0.09024430     0.18100
H1801       H  0.81063967  0.20030946  0.12771292     0.18000
N1802       N  0.82684249  0.19268737  0.08995948    -0.88700
H1803       H  0.67962817  0.36000595  0.11778553     0.35400
H1804       H  0.72002582  0.36255210  0.13628370     0.40500
H1805       H  0.80345446  0.16739191  0.08239780     0.40100
H1806       H  0.84642414  0.17042353  0.10003999     0.35000
C1807       C  0.72058969  0.09019499  0.12212201    -0.26700
C1808       C  0.74555968  0.04700625  0.12972421    -0.14800
C1809       C  0.77813650  0.44629350  0.11866699     0.35900
C1810       C  0.77089183  0.44387892  0.09873739    -0.26100
C1811       C  0.73868306  0.06206786  0.08944424    -0.15400
C1812       C  0.71649274  0.09780707  0.10223148     0.36900
N1813       N  0.68738460  0.14059965  0.09550749    -0.89600
H1814       H  0.70281462  0.11760813  0.13169819     0.18100
H1815       H  0.79542672  0.41918301  0.09028779     0.18000
N1816       N  0.81908224  0.41726237  0.12696688    -0.88700
H1817       H  0.71121522  0.16460825  0.08762899     0.35400
H1818       H  0.65865942  0.12694944  0.08641864     0.40500
H1819       H  0.84360299  0.44242345  0.13410484     0.40100
H1820       H  0.80423064  0.39168841  0.13698277     0.35000
C1821       C  0.49130210  0.30740750  0.09851944    -0.26700
C1822       C  0.01558609  0.26678625  0.08920787    -0.14800
C1823       C  0.03785807  0.22643175  0.09984305     0.35900
C1824       C  0.03422884  0.22658607  0.11994998    -0.26100
C1825       C  0.00861900  0.26572383  0.12981272    -0.15400
C1826       C  0.48740973  0.30745414  0.11867085     0.36900
N1827       N  0.45883701  0.34694220  0.12820991    -0.89600
H1828       H  0.47339003  0.33788213  0.09039847     0.18100
H1829       H  0.05197278  0.19591734  0.12802612     0.18000
N1830       N  0.06550956  0.18617408  0.09036930    -0.88700
H1831       H  0.44215726  0.37170044  0.11821659     0.35400
H1832       H  0.48477248  0.36890777  0.13603338     0.40500
H1833       H  0.03899468  0.16404590  0.08289136     0.40100
H1834       H  0.08187651  0.16153557  0.10046348     0.35000
C1835       C  0.53004000  0.45451845  0.11894155    -0.26700
C1836       C  0.49382287  0.05258991  0.12988643    -0.14800
C1837       C  0.96742584  0.08945468  0.12121150     0.35900
C1838       C  0.96606770  0.09391585  0.10112729    -0.26100
C1839       C  0.48984788  0.06216805  0.08932770    -0.15400
C1840       C  0.52631973  0.45027238  0.09895290     0.36900
N1841       N  0.56492889  0.42195859  0.08895012    -0.89600
H1842       H  0.56091326  0.43509963  0.12635728     0.18100
H1843       H  0.94585191  0.12590089  0.09476484     0.18000
N1844       N  0.94058247  0.12691738  0.13229772    -0.88700
H1845       H  0.54761070  0.39180049  0.08163009     0.35400
H1846       H  0.58193536  0.44598802  0.07884562     0.40500
H1847       H  0.91375035  0.10827235  0.14089909     0.40100
H1848       H  0.96676115  0.14577006  0.14108423     0.35000
C1849       C  0.76193100  0.28195647  0.34879121    -0.26700
C1850       C  0.72365040  0.25643899  0.33841663    -0.14800
C1851       C  0.68221857  0.23462031  0.34856933     0.35900
C1852       C  0.68018912  0.23872869  0.36859922    -0.26100
C1853       C  0.71871058  0.26393066  0.37898814    -0.15400
C1854       C  0.76002329  0.28598267  0.36879070     0.36900
N1855       N  0.80003515  0.31380703  0.37817495    -0.89600
H1856       H  0.79364772  0.29942824  0.34127130     0.18100
H1857       H  0.64862914  0.22103457  0.37613284     0.18000
N1858       N  0.64260114  0.20652166  0.33910271    -0.88700
H1859       H  0.82055337  0.28894850  0.38703608     0.35400
H1860       H  0.78368333  0.34286085  0.38646385     0.40500
H1861       H  0.65931936  0.17705733  0.33112931     0.40100
H1862       H  0.62317289  0.23110414  0.32983041     0.35000
C1863       C  0.68151761  0.02755295  0.34692889    -0.26700
C1864       C  0.72419418  0.00361090  0.33852312    -0.14800
C1865       C  0.76463509  0.48571897  0.35123456     0.35900
C1866       C  0.75932490  0.49005179  0.37124606    -0.26100
C1867       C  0.71580819  0.51255682  0.37953776    -0.15400
C1868       C  0.67675479  0.03219445  0.36700690     0.36900
N1869       N  0.63367214  0.05861616  0.37513252    -0.89600
H1870       H  0.65222290  0.04383766  0.33776600     0.18100
H1871       H  0.78904539  0.47475265  0.38045718     0.18000
N1872       N  0.80878922  0.46073638  0.34326549    -0.88700
H1873       H  0.60870855  0.07091433  0.36434054     0.35400
H1874       H  0.64743379  0.09155861  0.38187529     0.40500
H1875       H  0.79622485  0.42747269  0.33641238     0.40100
H1876       H  0.83375662  0.44898220  0.35413453     0.35000
C1877       C  0.53296953  0.28071161  0.34827295    -0.26700
C1878       C  0.00692030  0.24373922  0.33933954    -0.14800
C1879       C  0.96146430  0.24647248  0.35031050     0.35900
C1880       C  0.96453824  0.24614712  0.37043675    -0.26100
C1881       C  0.01175681  0.24345532  0.38004301    -0.15400
C1882       C  0.53433883  0.28373201  0.36840692     0.36900
N1883       N  0.56763306  0.31975525  0.37771692    -0.89600
H1884       H  0.55832832  0.30460393  0.33990035     0.18100
H1885       H  0.92954012  0.24886232  0.37866618     0.18000
N1886       N  0.91226678  0.24984992  0.34114132    -0.88700
H1887       H  0.58705779  0.34176274  0.36756346     0.35400
H1888       H  0.59563133  0.29907087  0.38505827     0.40500
H1889       H  0.90979814  0.28580937  0.33467390     0.40100
H1890       H  0.88286801  0.24849576  0.35127793     0.35000
C1891       C  0.96854522  0.49187674  0.34882654    -0.26700
C1892       C  0.01374819  0.99611411  0.33884187    -0.14800
C1893       C  0.54338270  0.97089910  0.34974591     0.35900
C1894       C  0.54174719  0.97456993  0.36985461    -0.26100
C1895       C  0.01141777  0.99893969  0.37981244    -0.15400
C1896       C  0.96613226  0.49204019  0.36883761     0.36900
N1897       N  0.91680091  0.48577695  0.37740747    -0.89600
H1898       H  0.93319394  0.48713455  0.34089657     0.18100
H1899       H  0.56940047  0.95327140  0.37826475     0.18000
N1900       N  0.58085053  0.93789090  0.34128395    -0.88700
H1901       H  0.90813531  0.51820345  0.38554738     0.35400
H1902       H  0.91730635  0.45334347  0.38615104     0.40500
H1903       H  0.60470089  0.95950949  0.33247794     0.40100
H1904       H  0.56198542  0.91073038  0.33285774     0.35000
C1905       C  0.78496725  0.23149028  0.84790782    -0.26700
C1906       C  0.75419464  0.26773457  0.83851819    -0.14800
C1907       C  0.72763826  0.30451511  0.84960708     0.35900
C1908       C  0.73281797  0.30449697  0.86959315    -0.26100
C1909       C  0.76404268  0.26866139  0.87898351    -0.15400
C1910       C  0.79034371  0.23161602  0.86789652     0.36900
N1911       N  0.82400853  0.19471572  0.87637998    -0.89600
H1912       H  0.80569315  0.20318548  0.83961159     0.18100
H1913       H  0.71155800  0.33240035  0.87789104     0.18000
N1914       N  0.69365563  0.34110199  0.84111989    -0.88700
H1915       H  0.80289305  0.17074036  0.88532097     0.35400
H1916       H  0.85144633  0.21398122  0.88455375     0.40500
H1917       H  0.66635422  0.32156073  0.83297412     0.40100
H1918       H  0.71455745  0.36512456  0.83212983     0.35000
C1919       C  0.71423796  0.10218150  0.86815985    -0.26700
C1920       C  0.74027178  0.06668741  0.87968620    -0.14800
C1921       C  0.77292510  0.44735105  0.86913566     0.35900
C1922       C  0.77424341  0.45137145  0.84898630    -0.26100
C1923       C  0.74336305  0.05874266  0.83912272    -0.15400
C1924       C  0.71498460  0.09838456  0.84797953     0.36900
N1925       N  0.68481424  0.13290791  0.83660094    -0.89600
H1926       H  0.69200531  0.13213577  0.87494423     0.18100
H1927       H  0.80086211  0.42808364  0.84087513     0.18000
N1928       N  0.80906999  0.41514607  0.87893787    -0.88700
H1929       H  0.66361295  0.15741881  0.84539522     0.35400
H1930       H  0.71008104  0.15613467  0.82905397     0.40500
H1931       H  0.78878958  0.38574458  0.88549516     0.40100
H1932       H  0.83372330  0.39759206  0.86913645     0.35000
C1933       C  0.52843608  0.30842608  0.84744381    -0.26700
C1934       C  0.99904435  0.27116357  0.83910934    -0.14800
C1935       C  0.97521154  0.23407664  0.85074025     0.35900
C1936       C  0.98133907  0.23634234  0.87074304    -0.26100
C1937       C  0.00990519  0.27536282  0.87945874    -0.15400
C1938       C  0.53409343  0.31047742  0.86749686     0.36900
N1939       N  0.56425369  0.35015529  0.87619235    -0.89600
H1940       H  0.54711659  0.33691831  0.83863494     0.18100
H1941       H  0.96313143  0.20770821  0.87962847     0.18000
N1942       N  0.94413548  0.19479802  0.84224216    -0.88700
H1943       H  0.57805895  0.37532132  0.86577466     0.35400
H1944       H  0.59622642  0.33286819  0.88247109     0.40500
H1945       H  0.91283104  0.21266619  0.83572422     0.40100
H1946       H  0.92922937  0.17070750  0.85280164     0.35000
C1947       C  0.96223143  0.44133673  0.86873919    -0.26700
C1948       C  0.48521831  0.06919486  0.87944660    -0.14800
C1949       C  0.51706150  0.10082292  0.86823604     0.35900
C1950       C  0.51735991  0.09505142  0.84810527    -0.26100
C1951       C  0.48768584  0.05728804  0.83908575    -0.15400
C1952       C  0.96339063  0.44279096  0.84855445     0.36900
N1953       N  0.93315947  0.40743060  0.83756212    -0.89600
H1954       H  0.93854508  0.41335558  0.87592839     0.18100
H1955       H  0.54200261  0.11902384  0.83947206     0.18000
N1956       N  0.55029423  0.13723532  0.87734270    -0.88700
H1957       H  0.91393364  0.38207389  0.84660454     0.35400
H1958       H  0.90508723  0.42849326  0.83034928     0.40500
H1959       H  0.57685119  0.11682322  0.88555552     0.40100
H1960       H  0.57121076  0.15742974  0.86707588     0.35000
C1961       C  0.67197976  0.27499846  0.62076352    -0.26700
C1962       C  0.71840101  0.26062474  0.62941218    -0.14800
C1963       C  0.76045968  0.24854772  0.61758084     0.35900
C1964       C  0.75545106  0.25099105  0.59759720    -0.26100
C1965       C  0.70909238  0.26511495  0.58885941    -0.15400
C1966       C  0.66687621  0.27762679  0.60065453     0.36900
N1967       N  0.61955181  0.29449063  0.59230818    -0.89600
H1968       H  0.63962783  0.28491754  0.62972143     0.18100
H1969       H  0.78828892  0.24119162  0.58886693     0.18000
N1970       N  0.80838211  0.23314051  0.62572768    -0.88700
H1971       H  0.59356588  0.30514759  0.60297962     0.35400
H1972       H  0.60357749  0.26308842  0.58530856     0.40500
H1973       H  0.83628196  0.25905469  0.62129121     0.40100
H1974       H  0.81782102  0.19711285  0.62026862     0.35000
C1975       C  0.67558758  0.02828303  0.62169643    -0.26700
C1976       C  0.71523759  0.50919703  0.63000734    -0.14800
C1977       C  0.74930450  0.48164251  0.61815595     0.35900
C1978       C  0.74345251  0.48379528  0.59813307    -0.26100
C1979       C  0.70448313  0.51285568  0.58955312    -0.15400
C1980       C  0.67044428  0.03195311  0.60157520     0.36900
N1981       N  0.62618387  0.05638111  0.59343725    -0.89600
H1982       H  0.64510613  0.04257083  0.63075544     0.18100
H1983       H  0.76978296  0.46267205  0.58910812     0.18000
N1984       N  0.78873801  0.45022748  0.62642914    -0.88700
H1985       H  0.60224234  0.07035370  0.60424669     0.35400
H1986       H  0.60517364  0.02848582  0.58624299     0.40500
H1987       H  0.81681424  0.47457958  0.63190809     0.40100
H1988       H  0.80667500  0.42834540  0.61582700     0.35000
C1989       C  0.96359291  0.26874657  0.61987798    -0.26700
C1990       C  0.48974178  0.25765387  0.62924069    -0.14800
C1991       C  0.51856385  0.22151645  0.61878318     0.35900
C1992       C  0.51543673  0.22111209  0.59866457    -0.26100
C1993       C  0.48471378  0.25635717  0.58880166    -0.15400
C1994       C  0.96364830  0.27042245  0.59978478     0.36900
N1995       N  0.92184045  0.29413428  0.58988590    -0.89600
H1996       H  0.93130385  0.28478635  0.62753976     0.18100
H1997       H  0.53762740  0.19350900  0.59057611     0.18000
N1998       N  0.54961612  0.18438151  0.62859881    -0.88700
H1999       H  0.91847745  0.33175834  0.59480412     0.35400
H2000       H  0.88836484  0.27465035  0.59345020     0.40500
H2001       H  0.58044225  0.20370277  0.63477916     0.40100
H2002       H  0.56540532  0.15845231  0.61882977     0.35000
C2003       C  0.51956486  0.96983265  0.62018618    -0.26700
C2004       C  0.49166372  0.00704756  0.63021795    -0.14800
C2005       C  0.96421239  0.47016313  0.61896153     0.35900
C2006       C  0.96641632  0.47207694  0.59882297    -0.26100
C2007       C  0.49091337  0.00487130  0.58956627    -0.15400
C2008       C  0.51916177  0.96802912  0.59996927     0.36900
N2009       N  0.54535902  0.92752870  0.59004331    -0.89600
H2010       H  0.54111667  0.94155376  0.62818935     0.18100
H2011       H  0.93960479  0.44980365  0.59041370     0.18000
N2012       N  0.92676181  0.43873777  0.62832086    -0.88700
H2013       H  0.56151854  0.90204586  0.59987163     0.35400
H2014       H  0.57585742  0.94342051  0.58248521     0.40500
H2015       H  0.94633590  0.40981699  0.63564116     0.40100
H2016       H  0.90355759  0.42050938  0.61819542     0.35000
O2017       O  0.95887144  0.99334462  0.66109155    -0.72200
O2018       O  0.95584965  0.49905251  0.71469144    -0.72400
O2019       O  0.95583250  0.57027279  0.68687020    -0.72200
O2020       O  0.95614637  0.92634726  0.69016636    -0.72200
O2021       O  0.53588544  0.93727651  0.68950476    -0.72200
O2022       O  0.53507165  0.58176883  0.68717323    -0.72200
O2023       O  0.53639001  0.01446986  0.71531133    -0.72200
O2024       O  0.53295332  0.50916387  0.65991929    -0.72400
V2025       V  0.95828480  0.49776488  0.68742504     1.35200
V2026       V  0.53323561  0.50934545  0.68722346     1.35200
C2027       C  0.49081263  0.51077830  0.65099789     0.77100
C2028       C  0.49498766  0.01560318  0.72466459     0.77100
C2029       C  0.99714721  0.59518608  0.68734025     0.77000
C2030       C  0.99747712  0.90124847  0.69009988     0.77000
O2031       O  0.53593662  0.76060288  0.66133035    -0.72200
O2032       O  0.53556361  0.75599036  0.71599302    -0.72400
O2033       O  0.53550862  0.68662079  0.68793841    -0.72200
O2034       O  0.53596184  0.83168549  0.68941714    -0.72200
O2035       O  0.95554114  0.82073212  0.68918612    -0.72200
O2036       O  0.95534019  0.67565047  0.68712573    -0.72200
O2037       O  0.95404725  0.74472165  0.71538345    -0.72200
O2038       O  0.95698682  0.75064382  0.66079533    -0.72400
V2039       V  0.53413196  0.75901518  0.68867159     1.35200
V2040       V  0.95707033  0.74810770  0.68812401     1.35200
C2041       C  0.49454948  0.76182807  0.65191471     0.77100
C2042       C  0.99518560  0.74165846  0.72484876     0.77100
C2043       C  0.99690616  0.65101890  0.68723345     0.77000
C2044       C  0.99713473  0.84519040  0.68992905     0.77000
O2045       O  0.68413321  0.00806195  0.66205494    -0.72200
O2046       O  0.69563368  0.50638800  0.71627942    -0.72400
O2047       O  0.68883830  0.58111883  0.68963350    -0.72200
O2048       O  0.68917480  0.93652512  0.68995013    -0.72200
O2049       O  0.77217976  0.93637018  0.68866684    -0.72200
O2050       O  0.77138874  0.58087095  0.68609286    -0.72200
O2051       O  0.77706302  0.01309936  0.71451922    -0.72200
O2052       O  0.76421916  0.50797608  0.65908982    -0.72400
V2053       V  0.69075588  0.00913178  0.68932298     1.35200
V2054       V  0.77035475  0.00885213  0.68733202     1.35200
C2055       C  0.72381841  0.00662140  0.65167892     0.77100
C2056       C  0.73727263  0.01411496  0.72477680     0.77100
C2057       C  0.73010049  0.60559394  0.68769135     0.77000
C2058       C  0.73073127  0.91179730  0.68960951     0.77000
O2059       O  0.76660570  0.76137674  0.66027983    -0.72200
O2060       O  0.77758891  0.75462754  0.71469278    -0.72400
O2061       O  0.77169634  0.68593514  0.68645294    -0.72200
O2062       O  0.77223927  0.83099339  0.68855549    -0.72200
O2063       O  0.68941836  0.83117456  0.69097374    -0.72200
O2064       O  0.68878120  0.68626428  0.68847121    -0.72200
O2065       O  0.69471154  0.75421768  0.71692898    -0.72200
O2066       O  0.68392225  0.76249228  0.66240128    -0.72400
V2067       V  0.77039912  0.75840771  0.68752992     1.35200
V2068       V  0.69081090  0.75867571  0.68965540     1.35200
C2069       C  0.72356677  0.76286807  0.65197810     0.77100
C2070       C  0.73801141  0.75133341  0.72497669     0.77100
C2071       C  0.73017570  0.66149607  0.68744852     0.77000
C2072       C  0.73083408  0.85574589  0.68986362     0.77000
O2073       O  0.98966126  0.00419437  0.81130658    -0.72200
O2074       O  0.49583873  0.98521903  0.75682756    -0.72400
O2075       O  0.56589596  0.99615016  0.78472318    -0.72200
O2076       O  0.92025104  0.99204163  0.78345386    -0.72200
O2077       O  0.92445012  0.53285739  0.78293069    -0.72200
O2078       O  0.56819211  0.53744918  0.78259110    -0.72200
O2079       O  0.99548191  0.53566659  0.75513488    -0.72200
O2080       O  0.49658266  0.52986071  0.81002508    -0.72400
V2081       V  0.49352498  0.99706762  0.78380127     1.35200
V2082       V  0.49569098  0.53485806  0.78276991     1.35200
C2083       C  0.49507764  0.48629336  0.81789496     0.77100
C2084       C  0.49491671  0.02295440  0.74553102     0.77100
C2085       C  0.59027044  0.03722181  0.78223637     0.77000
C2086       C  0.89606743  0.03358037  0.78141395     0.77000
O2087       O  0.99356963  0.66372424  0.80593805    -0.72200
O2088       O  0.49619021  0.69626418  0.75182616    -0.72400
O2089       O  0.56801470  0.68240210  0.77895446    -0.72200
O2090       O  0.92161152  0.67775953  0.77870725    -0.72200
O2091       O  0.92336570  0.75928228  0.78471999    -0.72200
O2092       O  0.56693917  0.76435464  0.78413657    -0.72200
O2093       O  0.99415790  0.77003342  0.75721190    -0.72200
O2094       O  0.49715137  0.74838364  0.81144906    -0.72400
V2095       V  0.99419782  0.67746392  0.77908031     1.35200
V2096       V  0.99579568  0.75618039  0.78400956     1.35200
C2097       C  0.99674199  0.70055339  0.81765170     0.77100
C2098       C  0.99445507  0.73305553  0.74555723     0.77100
C2099       C  0.59204134  0.72357933  0.78164523     0.77000
C2100       C  0.89788239  0.71918687  0.78159123     0.77000
O2101       O  0.74532048  0.00603809  0.81106719    -0.72200
O2102       O  0.73975775  0.98399198  0.75702265    -0.72400
O2103       O  0.81509400  0.99357475  0.78321410    -0.72200
O2104       O  0.67039118  0.99602596  0.78496274    -0.72200
O2105       O  0.67389783  0.53765866  0.78219472    -0.72200
O2106       O  0.81920739  0.53530202  0.78282693    -0.72200
O2107       O  0.74702742  0.54168181  0.75526228    -0.72200
O2108       O  0.74526604  0.53210066  0.80965826    -0.72400
V2109       V  0.74271220  0.99649612  0.78398318     1.35200
V2110       V  0.74650622  0.53508463  0.78244705     1.35200
C2111       C  0.74543702  0.48927538  0.81801808     0.77100
C2112       C  0.74398708  0.50200078  0.74500336     0.77100
C2113       C  0.84316660  0.49343768  0.78133150     0.77000
C2114       C  0.64903437  0.49629020  0.78172960     0.77000
O2115       O  0.74661231  0.66763526  0.80546996    -0.72200
O2116       O  0.74188034  0.69570857  0.75178524    -0.72400
O2117       O  0.81670900  0.68059324  0.77789518    -0.72200
O2118       O  0.67206269  0.68226250  0.77930637    -0.72200
O2119       O  0.67277879  0.76422827  0.78445299    -0.72200
O2120       O  0.81801096  0.76179424  0.78450452    -0.72200
O2121       O  0.74494937  0.77726969  0.75764749    -0.72200
O2122       O  0.74528658  0.74912824  0.81122054    -0.72400
V2123       V  0.74436834  0.68315294  0.77870506     1.35200
V2124       V  0.74534579  0.76152532  0.78435319     1.35200
C2125       C  0.74609055  0.70383250  0.81753672     0.77100
C2126       C  0.74207552  0.74119978  0.74563489     0.77100
C2127       C  0.84196739  0.72064651  0.78130118     0.77000
C2128       C  0.64785404  0.72349651  0.78183799     0.77000
O2129       O  0.97167072  0.49727607  0.30881607    -0.72200
O2130       O  0.96162507  0.99738212  0.25412890    -0.72400
O2131       O  0.96645371  0.92289975  0.28085283    -0.72200
O2132       O  0.96957983  0.56842244  0.28125583    -0.72200
O2133       O  0.54605878  0.56868311  0.28126973    -0.72200
O2134       O  0.54574958  0.92504932  0.27888920    -0.72200
O2135       O  0.54457969  0.49620881  0.25374269    -0.72200
O2136       O  0.54702719  0.99446167  0.30740077    -0.72400
V2137       V  0.97036135  0.49602341  0.28161684     1.35200
V2138       V  0.54313704  0.49618701  0.28105690     1.35200
C2139       C  0.01395436  0.49690980  0.31766118     0.77100
C2140       C  0.00651551  0.49348880  0.24465130     0.77100
C2141       C  0.00827285  0.89873959  0.27986911     0.77000
C2142       C  0.01131500  0.59256907  0.28086948     0.77000
O2143       O  0.54465194  0.75112231  0.30809785    -0.72200
O2144       O  0.54910147  0.74262240  0.25354721    -0.72400
O2145       O  0.54668416  0.81951531  0.27943091    -0.72200
O2146       O  0.54687758  0.67438801  0.28213223    -0.72200
O2147       O  0.96966349  0.67283895  0.28108324    -0.72200
O2148       O  0.96792866  0.81766425  0.27969791    -0.72200
O2149       O  0.96923766  0.74262754  0.25310344    -0.72200
O2150       O  0.96871148  0.74734493  0.30771282    -0.72400
V2151       V  0.54525189  0.74697001  0.28079807     1.35200
V2152       V  0.97052180  0.74521521  0.28040121     1.35200
C2153       C  0.01005201  0.74812248  0.31717103     0.77100
C2154       C  0.01092247  0.74152762  0.24396549     0.77100
C2155       C  0.00912207  0.84274451  0.27978102     0.77000
C2156       C  0.01137192  0.64847149  0.28101618     0.77000
O2157       O  0.69113122  0.50403693  0.30728161    -0.72200
O2158       O  0.69918033  0.00376322  0.25230890    -0.72400
O2159       O  0.69375068  0.93011963  0.27925281    -0.72200
O2160       O  0.69657010  0.57435541  0.27948120    -0.72200
O2161       O  0.77923421  0.57468456  0.28276487    -0.72200
O2162       O  0.77673832  0.92972383  0.28077627    -0.72200
O2163       O  0.78539797  0.50220066  0.25528262    -0.72200
O2164       O  0.77154618  0.99990624  0.30900176    -0.72400
V2165       V  0.69846431  0.50197351  0.28012378     1.35200
V2166       V  0.77804773  0.50219948  0.28249713     1.35200
C2167       C  0.73052602  0.50341396  0.31783934     0.77100
C2168       C  0.74585065  0.49989231  0.24487047     0.77100
C2169       C  0.73524898  0.90524560  0.27978943     0.77000
C2170       C  0.73772390  0.59908510  0.28123238     0.77000
O2171       O  0.76886691  0.75601434  0.30943189    -0.72200
O2172       O  0.78681217  0.74796170  0.25525166    -0.72400
O2173       O  0.77719391  0.82478876  0.28107261    -0.72200
O2174       O  0.77813601  0.67984536  0.28358457    -0.72200
O2175       O  0.69588409  0.67909622  0.27908404    -0.72200
O2176       O  0.69448404  0.82413440  0.27812010    -0.72200
O2177       O  0.70435626  0.74925783  0.25140555    -0.72200
O2178       O  0.68658869  0.75281381  0.30582279    -0.72400
V2179       V  0.77612223  0.75225720  0.28227200     1.35200
V2180       V  0.69691102  0.75148833  0.27866417     1.35200
C2181       C  0.72484572  0.75514266  0.31695461     0.77100
C2182       C  0.74861253  0.74606475  0.24415412     0.77100
C2183       C  0.73559418  0.84914490  0.27955791     0.77000
C2184       C  0.73724547  0.65490175  0.28136591     0.77000
O2185       O  0.97061832  0.99859571  0.41076096    -0.72200
O2186       O  0.97114264  0.49835647  0.46494468    -0.72400
O2187       O  0.97126864  0.57073661  0.43774399    -0.72200
O2188       O  0.97064928  0.92559519  0.43779198    -0.72200
O2189       O  0.54233374  0.93360673  0.43812481    -0.72200
O2190       O  0.53972343  0.57807099  0.43724093    -0.72200
O2191       O  0.53979649  0.00744449  0.46503432    -0.72200
O2192       O  0.53983063  0.50451529  0.41027389    -0.72400
V2193       V  0.97264861  0.49823810  0.43777019     1.35200
V2194       V  0.53706469  0.50568822  0.43756529     1.35200
C2195       C  0.01191361  0.49795378  0.40114966     0.77100
C2196       C  0.49515811  0.50654927  0.47382297     0.77100
C2197       C  0.01288487  0.59514204  0.43771867     0.77000
C2198       C  0.01228981  0.90105748  0.43776370     0.77000
O2199       O  0.54344646  0.75696794  0.41024426    -0.72200
O2200       O  0.54002569  0.75496463  0.46498800    -0.72400
O2201       O  0.54111125  0.68324564  0.43723225    -0.72200
O2202       O  0.54224480  0.82831865  0.43801110    -0.72200
O2203       O  0.97104791  0.82059623  0.43738322    -0.72200
O2204       O  0.97139106  0.67568314  0.43739977    -0.72200
O2205       O  0.97062318  0.74833937  0.46465596    -0.72200
O2206       O  0.97194188  0.74809302  0.41007103    -0.72400
V2207       V  0.54012535  0.75583715  0.43760301     1.35200
V2208       V  0.97289325  0.74815781  0.43738133     1.35200
C2209       C  0.01357624  0.74773167  0.40084142     0.77100
C2210       C  0.01184692  0.74863615  0.47415783     0.77100
C2211       C  0.01295213  0.65104461  0.43763873     0.77000
C2212       C  0.01251497  0.84520439  0.43757576     0.77000
O2213       O  0.66979389  0.01652839  0.40906886    -0.72200
O2214       O  0.66289792  0.51533730  0.46406947    -0.72400
O2215       O  0.66528156  0.58802419  0.43683408    -0.72200
O2216       O  0.66597765  0.94391110  0.43634288    -0.72200
O2217       O  0.74895834  0.94265050  0.43797680    -0.72200
O2218       O  0.74835445  0.58852692  0.43773909    -0.72200
O2219       O  0.74779531  0.01642448  0.46478170    -0.72200
O2220       O  0.75234012  0.51478703  0.41092600    -0.72400
V2221       V  0.66875193  0.01640130  0.43648550     1.35200
V2222       V  0.74849919  0.01512435  0.43753320     1.35200
C2223       C  0.71222020  0.01443335  0.40035178     0.77100
C2224       C  0.70566904  0.01654661  0.47363967     0.77100
C2225       C  0.70661797  0.61284632  0.43728344     0.77000
C2226       C  0.70713378  0.91868287  0.43713711     0.77000
O2227       O  0.66826957  0.76427747  0.40907144    -0.72200
O2228       O  0.66195562  0.76692292  0.46397167    -0.72400
O2229       O  0.66504946  0.83837858  0.43611566    -0.72200
O2230       O  0.66477792  0.69328932  0.43690348    -0.72200
O2231       O  0.74785376  0.69320330  0.43767061    -0.72200
O2232       O  0.74799316  0.83799216  0.43800976    -0.72200
O2233       O  0.74493960  0.76525184  0.46505324    -0.72200
O2234       O  0.75099762  0.76598269  0.41061207    -0.72400
V2235       V  0.66654312  0.76577022  0.43653491     1.35200
V2236       V  0.74625207  0.76560501  0.43781326     1.35200
C2237       C  0.71093819  0.76497650  0.40046270     0.77100
C2238       C  0.70269529  0.76616606  0.47382783     0.77100
C2239       C  0.70661790  0.86278714  0.43707948     0.77000
C2240       C  0.70634604  0.66867415  0.43728739     0.77000
O2241       O  0.47984943  0.51535265  0.05858118    -0.72200
O2242       O  0.98063164  0.51474814  0.00434114    -0.72400
O2243       O  0.90765825  0.51482611  0.03141584    -0.72200
O2244       O  0.55287791  0.51439048  0.03161291    -0.72200
O2245       O  0.55575193  0.03108854  0.03051420    -0.72200
O2246       O  0.91063488  0.02865701  0.03058628    -0.72200
O2247       O  0.48249872  0.03448315  0.00362787    -0.72200
O2248       O  0.98442605  0.02327310  0.05744084    -0.72400
V2249       V  0.48038879  0.51293826  0.03134151     1.35200
V2250       V  0.48331081  0.03251985  0.03076694     1.35200
C2251       C  0.48236279  0.47418235  0.06800507     0.77100
C2252       C  0.48045005  0.47209172  0.99492638     0.77100
C2253       C  0.88335123  0.47319433  0.03179519     0.77000
C2254       C  0.57749967  0.47280374  0.03148333     0.77000
O2255       O  0.01501546  0.71768967  0.05733021    -0.72200
O2256       O  0.01593464  0.71013054  0.00309579    -0.72400
O2257       O  0.94326664  0.71358666  0.03002144    -0.72200
O2258       O  0.58839683  0.71404555  0.03007399    -0.72200
O2259       O  0.58844758  0.63108010  0.03163730    -0.72200
O2260       O  0.94358883  0.63064204  0.03178312    -0.72200
O2261       O  0.01582918  0.62716291  0.00430803    -0.72200
O2262       O  0.01613085  0.63501396  0.05921302    -0.72400
V2263       V  0.01569167  0.71212587  0.03023510     1.35200
V2264       V  0.01605959  0.63245965  0.03174490     1.35200
C2265       C  0.01498257  0.67797327  0.06763894     0.77100
C2266       C  0.01556490  0.66775537  0.99441151     0.77100
C2267       C  0.91886006  0.67207405  0.03088463     0.77000
C2268       C  0.61302388  0.67251870  0.03091169     0.77000
O2269       O  0.72921295  0.51485811  0.05887175    -0.72200
O2270       O  0.73125467  0.51384663  0.00437104    -0.72400
O2271       O  0.65779102  0.51428340  0.03123369    -0.72200
O2272       O  0.80269270  0.51450062  0.03201725    -0.72200
O2273       O  0.80534971  0.02956778  0.03044624    -0.72200
O2274       O  0.66047925  0.03077480  0.03128624    -0.72200
O2275       O  0.73160758  0.03385093  0.00375910    -0.72200
O2276       O  0.73461229  0.02652844  0.05801692    -0.72400
V2277       V  0.73022263  0.51273415  0.03162871     1.35200
V2278       V  0.73292813  0.03186611  0.03090575     1.35200
C2279       C  0.73109978  0.47369598  0.06832595     0.77100
C2280       C  0.73083232  0.47223915  0.99514205     0.77100
C2281       C  0.63335215  0.47274443  0.03162970     0.77000
C2282       C  0.82747932  0.47302321  0.03178563     0.77000
O2283       O  0.76584740  0.71773668  0.05731395    -0.72200
O2284       O  0.76608155  0.71018528  0.00302876    -0.72400
O2285       O  0.69348559  0.71386236  0.03007159    -0.72200
O2286       O  0.83844183  0.71364042  0.03024852    -0.72200
O2287       O  0.83851668  0.63063579  0.03154224    -0.72200
O2288       O  0.69357110  0.63095666  0.03200752    -0.72200
O2289       O  0.76529787  0.62723991  0.00427519    -0.72200
O2290       O  0.76703890  0.63509918  0.05927130    -0.72400
V2291       V  0.76598445  0.71214876  0.03020063     1.35200
V2292       V  0.76608232  0.63250262  0.03174783     1.35200
C2293       C  0.76656876  0.67811632  0.06768729     0.77100
C2294       C  0.76553750  0.66781154  0.99434180     0.77100
C2295       C  0.66892495  0.67243234  0.03101286     0.77000
C2296       C  0.86304634  0.67209391  0.03088122     0.77000
O2297       O  0.99848989  0.52729707  0.15956862    -0.72200
O2298       O  0.50334857  0.53344934  0.21376199    -0.72400
O2299       O  0.57391667  0.53107064  0.18583897    -0.72200
O2300       O  0.92934315  0.53005435  0.18768343    -0.72200
O2301       O  0.92399904  0.98330102  0.18489652    -0.72200
O2302       O  0.56954561  0.98639707  0.18455640    -0.72200
O2303       O  0.99713374  0.97102247  0.21182399    -0.72200
O2304       O  0.49732391  0.99855696  0.15751462    -0.72400
V2305       V  0.50137986  0.52919184  0.18651938     1.35200
V2306       V  0.49720522  0.98746347  0.18451988     1.35200
C2307       C  0.49918822  0.48603798  0.15050760     0.77100
C2308       C  0.50269407  0.49284461  0.22354563     0.77100
C2309       C  0.59875945  0.48967143  0.18682313     0.77000
C2310       C  0.90466199  0.48861553  0.18789324     0.77000
O2311       O  0.00911839  0.75237221  0.15778414    -0.72200
O2312       O  0.51009988  0.77363366  0.21167996    -0.72400
O2313       O  0.58260420  0.76412521  0.18442019    -0.72200
O2314       O  0.93811592  0.76332679  0.18535240    -0.72200
O2315       O  0.93776712  0.68086902  0.18912652    -0.72200
O2316       O  0.58321036  0.68184482  0.18873942    -0.72200
O2317       O  0.01048873  0.69029091  0.21601576    -0.72200
O2318       O  0.51127147  0.67158177  0.16157744    -0.72400
V2319       V  0.01057309  0.76099703  0.18491055     1.35200
V2320       V  0.01036219  0.68194055  0.18892062     1.35200
C2321       C  0.00946413  0.70798232  0.15054011     0.77100
C2322       C  0.01121294  0.73473008  0.22312093     0.77100
C2323       C  0.60747140  0.72305943  0.18645355     0.77000
C2324       C  0.91333299  0.72237252  0.18749668     0.77000
O2325       O  0.75064138  0.52561032  0.15920997    -0.72200
O2326       O  0.75195819  0.53589577  0.21368342    -0.72400
O2327       O  0.82423384  0.53034565  0.18631805    -0.72200
O2328       O  0.67920173  0.53110398  0.18652979    -0.72200
O2329       O  0.67393098  0.98618644  0.18462210    -0.72200
O2330       O  0.81878603  0.98419184  0.18555557    -0.72200
O2331       O  0.74485693  0.97524123  0.21216151    -0.72200
O2332       O  0.74750332  0.99521789  0.15810292    -0.72400
V2333       V  0.75167696  0.52912630  0.18647174     1.35200
V2334       V  0.74633066  0.98682391  0.18518468     1.35200
C2335       C  0.75140726  0.48252158  0.15096586     0.77100
C2336       C  0.74973070  0.49618036  0.22394523     0.77100
C2337       C  0.84875043  0.48888173  0.18785789     0.77000
C2338       C  0.65460291  0.48964880  0.18700874     0.77000
O2339       O  0.76223913  0.75333239  0.15795521    -0.72200
O2340       O  0.75766520  0.77542612  0.21195727    -0.72400
O2341       O  0.83288970  0.76419906  0.18560615    -0.72200
O2342       O  0.68782065  0.76426952  0.18420637    -0.72200
O2343       O  0.68788460  0.68199999  0.18854691    -0.72200
O2344       O  0.83267129  0.68208281  0.19029663    -0.72200
O2345       O  0.75716604  0.69326361  0.21651053    -0.72200
O2346       O  0.76291102  0.67137231  0.16230929    -0.72400
V2347       V  0.76029435  0.76269115  0.18501401     1.35200
V2348       V  0.76024250  0.68377797  0.18935506     1.35200
C2349       C  0.76318078  0.70886554  0.15080462     0.77100
C2350       C  0.75521427  0.73804560  0.22338701     0.77100
C2351       C  0.85739973  0.72296113  0.18789547     0.77000
C2352       C  0.66328578  0.72313683  0.18632856     0.77000
O2353       O  0.48186153  0.03171372  0.91048346    -0.72200
O2354       O  0.98517409  0.03542722  0.96454795    -0.72400
O2355       O  0.91116536  0.03394431  0.93805715    -0.72200
O2356       O  0.55564420  0.03296892  0.93725526    -0.72200
O2357       O  0.55564505  0.51449928  0.93829408    -0.72200
O2358       O  0.91063139  0.51612969  0.93695422    -0.72200
O2359       O  0.48113488  0.51390319  0.96477133    -0.72200
O2360       O  0.98580214  0.51672914  0.91045323    -0.72400
V2361       V  0.48312030  0.03538737  0.93764964     1.35200
V2362       V  0.48327550  0.51326038  0.93755166     1.35200
C2363       C  0.48638058  0.47488953  0.90076484     0.77100
C2364       C  0.48136508  0.47214847  0.97385851     0.77100
C2365       C  0.88602692  0.47464720  0.93728593     0.77000
C2366       C  0.58018473  0.47294737  0.93759843     0.77000
O2367       O  0.51170851  0.63181866  0.90841067    -0.72200
O2368       O  0.01528384  0.62647591  0.96354276    -0.72400
O2369       O  0.94146136  0.62929524  0.93644920    -0.72200
O2370       O  0.58624145  0.62825733  0.93534394    -0.72200
O2371       O  0.58644777  0.71114130  0.93748440    -0.72200
O2372       O  0.94137483  0.71235878  0.93692427    -0.72200
O2373       O  0.51318672  0.70902189  0.96417299    -0.72200
O2374       O  0.01479270  0.71537747  0.91022884    -0.72400
V2375       V  0.01383535  0.63085749  0.93608544     1.35200
V2376       V  0.01394935  0.71057436  0.93730856     1.35200
C2377       C  0.01323864  0.67537922  0.90010212     0.77100
C2378       C  0.01467210  0.66738835  0.97328437     0.77100
C2379       C  0.91682637  0.67081638  0.93656333     0.77000
C2380       C  0.61093762  0.66957104  0.93649735     0.77000
O2381       O  0.73593882  0.03009355  0.91089986    -0.72200
O2382       O  0.73209595  0.03498438  0.96506100    -0.72400
O2383       O  0.66117586  0.03249145  0.93733996    -0.72200
O2384       O  0.80628335  0.03333761  0.93857215    -0.72200
O2385       O  0.80524266  0.51595484  0.93745483    -0.72200
O2386       O  0.66027095  0.51478921  0.93800597    -0.72200
O2387       O  0.73321615  0.51424519  0.96498795    -0.72200
O2388       O  0.73212012  0.51667499  0.91048653    -0.72400
V2389       V  0.73377033  0.03441480  0.93795424     1.35200
V2390       V  0.73272283  0.51379072  0.93772765     1.35200
C2391       C  0.73537351  0.47578942  0.90088327     0.77100
C2392       C  0.73182874  0.47245176  0.97404629     0.77100
C2393       C  0.63605274  0.47311981  0.93734356     0.77000
C2394       C  0.83016976  0.47455640  0.93756976     0.77000
O2395       O  0.76406443  0.63098779  0.90854842    -0.72200
O2396       O  0.76420832  0.62628095  0.96351259    -0.72400
O2397       O  0.69164687  0.62808077  0.93588163    -0.72200
O2398       O  0.83668304  0.62893006  0.93612239    -0.72200
O2399       O  0.83603310  0.71199627  0.93641514    -0.72200
O2400       O  0.69115417  0.71102582  0.93762451    -0.72200
O2401       O  0.76542845  0.70926822  0.96419438    -0.72200
O2402       O  0.76111909  0.71380610  0.90985821    -0.72400
V2403       V  0.76419205  0.63009731  0.93603582     1.35200
V2404       V  0.76355013  0.70983120  0.93700290     1.35200
C2405       C  0.76124093  0.67344304  0.89987508     0.77100
C2406       C  0.76507792  0.66732585  0.97316698     0.77100
C2407       C  0.66680866  0.66948209  0.93668892     0.77000
C2408       C  0.86095152  0.67060915  0.93632810     0.77000
O2409       O  0.53326507  0.00569727  0.55926043    -0.72200
O2410       O  0.53495674  0.50747192  0.50447115    -0.72400
O2411       O  0.53424786  0.57904967  0.53215517    -0.72200
O2412       O  0.53555939  0.93475025  0.53162110    -0.72200
O2413       O  0.96621126  0.92659406  0.53158657    -0.72200
O2414       O  0.96698401  0.57140829  0.53148013    -0.72200
O2415       O  0.96826523  0.00002501  0.50475126    -0.72200
O2416       O  0.96519457  0.49830702  0.55845975    -0.72400
V2417       V  0.53194665  0.50650696  0.53170170     1.35200
V2418       V  0.96908700  0.49894502  0.53127645     1.35200
C2419       C  0.49065504  0.50624154  0.56800761     0.77100
C2420       C  0.49392280  0.50703315  0.49489084     0.77100
C2421       C  0.49291803  0.60411990  0.53165080     0.77000
C2422       C  0.49415742  0.90997289  0.53166097     0.77000
O2423       O  0.53291321  0.75581351  0.55958615    -0.72200
O2424       O  0.53731749  0.75735100  0.50487207    -0.72400
O2425       O  0.53562074  0.82928149  0.53250819    -0.72200
O2426       O  0.53491421  0.68427348  0.53195708    -0.72200
O2427       O  0.96644731  0.67647606  0.53107545    -0.72200
O2428       O  0.96608419  0.82148906  0.53161434    -0.72200
O2429       O  0.96853636  0.74949236  0.50407831    -0.72200
O2430       O  0.96371921  0.74820573  0.55857089    -0.72400
V2431       V  0.53358434  0.75673870  0.53222071     1.35200
V2432       V  0.96783315  0.74895384  0.53134788     1.35200
C2433       C  0.49076213  0.75761655  0.56847828     0.77100
C2434       C  0.49649652  0.75683631  0.49509478     0.77100
C2435       C  0.49421307  0.85412824  0.53171887     0.77000
C2436       C  0.49324258  0.66000968  0.53176589     0.77000
O2437       O  0.74884110  0.01578407  0.55851664    -0.72200
O2438       O  0.74377182  0.51821489  0.50442255    -0.69200
O2439       O  0.74381821  0.58924603  0.53219964    -0.72200
O2440       O  0.74740614  0.94410534  0.53103623    -0.72200
O2441       O  0.66433545  0.94475969  0.53181218    -0.72200
O2442       O  0.66073264  0.58946279  0.53162560    -0.72200
O2443       O  0.66376181  0.01664885  0.50420402    -0.72200
O2444       O  0.66123077  0.51717071  0.55906831    -0.72400
V2445       V  0.74613825  0.01661716  0.53126068     1.35200
V2446       V  0.66635949  0.01716013  0.53163494     1.35200
C2447       C  0.70794848  0.01621957  0.56819290     0.77100
C2448       C  0.70514099  0.01681795  0.49479688     0.77100
C2449       C  0.70231858  0.61396381  0.53195919     0.77000
C2450       C  0.70571586  0.91985717  0.53142659     0.77000
O2451       O  0.74752577  0.76666433  0.55860803    -0.72200
O2452       O  0.74397055  0.76608367  0.50413236    -0.72400
O2453       O  0.74651375  0.83888559  0.53126555    -0.72200
O2454       O  0.74457770  0.69391102  0.53148584    -0.72200
O2455       O  0.66152846  0.69507927  0.53230144    -0.72200
O2456       O  0.66343331  0.84001163  0.53173935    -0.72200
O2457       O  0.66093782  0.76684243  0.50453313    -0.72200
O2458       O  0.66475873  0.76864817  0.55945291    -0.72400
V2459       V  0.74396961  0.76640693  0.53137504     1.35200
V2460       V  0.66422240  0.76759457  0.53200220     1.35200
C2461       C  0.70694369  0.76799870  0.56843509     0.77100
C2462       C  0.70216470  0.76636550  0.49501368     0.77100
C2463       C  0.70524077  0.86402259  0.53146748     0.77000
C2464       C  0.70274895  0.66988609  0.53194546     0.77000
C2465       C  0.74951893  0.73054884  0.09676068    -0.26700
C2466       C  0.76585297  0.68360213  0.08907492    -0.14800
C2467       C  0.78223647  0.64485994  0.10187772     0.35900
C2468       C  0.78046425  0.65375188  0.12190054    -0.26100
C2469       C  0.76436408  0.70103587  0.12951277    -0.15400
C2470       C  0.74929588  0.74006750  0.11661137     0.36900
N2471       N  0.73299480  0.78921985  0.12357979    -0.89600
H2472       H  0.73711526  0.76065610  0.08715057     0.18100
H2473       H  0.79276907  0.62382760  0.13161374     0.18000
N2474       N  0.80292746  0.59772870  0.09463840    -0.88700
H2475       H  0.71886231  0.81174010  0.11236776     0.35400
H2476       H  0.76545634  0.80814491  0.12867622     0.40500
H2477       H  0.77342522  0.57809364  0.08781312     0.40100
H2478       H  0.81515490  0.57432793  0.10591334     0.35000
C2479       C  0.70985775  0.50914721  0.12065228    -0.26700
C2480       C  0.74698059  0.47902125  0.12983629    -0.14800
C2481       C  0.76801909  0.01154219  0.11686872     0.35900
C2482       C  0.76446320  0.01956736  0.09707913    -0.26100
C2483       C  0.73417530  0.47456814  0.08953703    -0.15400
C2484       C  0.70319399  0.50739748  0.10073584     0.36900
N2485       N  0.66426014  0.53890644  0.09235945    -0.89600
H2486       H  0.68555393  0.53417489  0.12906197     0.18100
H2487       H  0.78217516  0.99201788  0.08753927     0.18000
N2488       N  0.79574435  0.96755132  0.12336822    -0.88700
H2489       H  0.68123991  0.56538307  0.08317175     0.35400
H2490       H  0.63968960  0.51573797  0.08436232     0.40500
H2491       H  0.82446924  0.97945238  0.13280926     0.40100
H2492       H  0.77071201  0.94304307  0.13050507     0.35000
C2493       C  0.49451614  0.73047794  0.09633591    -0.26700
C2494       C  0.01252524  0.68312357  0.08895992    -0.14800
C2495       C  0.02927385  0.64459197  0.10174691     0.35900
C2496       C  0.02716259  0.65339974  0.12172485    -0.26100
C2497       C  0.00955362  0.70013352  0.12931025    -0.15400
C2498       C  0.49332474  0.73974275  0.11619586     0.36900
N2499       N  0.47339438  0.78743681  0.12325767    -0.89600
H2500       H  0.48082101  0.75994640  0.08668862     0.18100
H2501       H  0.04038051  0.62384451  0.13142996     0.18000
N2502       N  0.05030329  0.59761617  0.09452341    -0.88700
H2503       H  0.45754425  0.80890188  0.11207498     0.35400
H2504       H  0.50431491  0.80873045  0.12837470     0.40500
H2505       H  0.02076297  0.57784703  0.08775921     0.40100
H2506       H  0.06265763  0.57431199  0.10580555     0.35000
C2507       C  0.52074157  0.01863257  0.11803823    -0.26700
C2508       C  0.49486871  0.48392919  0.12939327    -0.14800
C2509       C  0.95496513  0.50996611  0.11972907     0.35900
C2510       C  0.95110235  0.50544076  0.09975448    -0.26100
C2511       C  0.48616985  0.47538148  0.08912367    -0.15400
C2512       C  0.51928619  0.02296005  0.09804967     0.36900
N2513       N  0.54936922  0.98768243  0.08707909    -0.89600
H2514       H  0.54331640  0.98822541  0.12438251     0.18100
H2515       H  0.92122869  0.52618592  0.09226522     0.18000
N2516       N  0.91846506  0.54138104  0.12954420    -0.88700
H2517       H  0.52514010  0.96488864  0.07879719     0.35400
H2518       H  0.57368417  0.00833918  0.07807601     0.40500
H2519       H  0.90005789  0.51923489  0.13991462     0.40100
H2520       H  0.93789138  0.57109128  0.13640843     0.35000
C2521       C  0.75671809  0.78399613  0.34884136    -0.26700
C2522       C  0.71918281  0.75791539  0.33826158    -0.14800
C2523       C  0.67858816  0.73434077  0.34839481     0.35900
C2524       C  0.67627607  0.73797094  0.36850696    -0.26100
C2525       C  0.71413871  0.76377915  0.37907100    -0.15400
C2526       C  0.75487538  0.78703777  0.36890493     0.36900
N2527       N  0.79453527  0.81504140  0.37841637    -0.89600
H2528       H  0.78804904  0.80245905  0.34143262     0.18100
H2529       H  0.64519987  0.71924171  0.37597067     0.18000
N2530       N  0.64037630  0.70463903  0.33882626    -0.88700
H2531       H  0.81551913  0.79007371  0.38707971     0.35400
H2532       H  0.77782131  0.84342418  0.38692719     0.40500
H2533       H  0.65850367  0.67583720  0.33094648     0.40100
H2534       H  0.62050735  0.72840886  0.32941066     0.35000
C2535       C  0.68235992  0.52776979  0.34738067    -0.26700
C2536       C  0.72591679  0.50523135  0.33909933    -0.14800
C2537       C  0.76274049  0.98345602  0.35058276     0.35900
C2538       C  0.75797314  0.98812054  0.37061757    -0.26100
C2539       C  0.71526518  0.01184219  0.37903714    -0.15400
C2540       C  0.67696881  0.53191429  0.36743115     0.36900
N2541       N  0.63283377  0.55676125  0.37545742    -0.89600
H2542       H  0.65280323  0.54328390  0.33814863     0.18100
H2543       H  0.78752903  0.97220351  0.37975352     0.18000
N2544       N  0.80627721  0.95764883  0.34251270    -0.88700
H2545       H  0.60773921  0.56839791  0.36460516     0.35400
H2546       H  0.64532667  0.59004035  0.38231542     0.40500
H2547       H  0.79302083  0.92443813  0.33580927     0.40100
H2548       H  0.83145177  0.94584719  0.35331394     0.35000
C2549       C  0.53533434  0.78365551  0.34814928    -0.26700
C2550       C  0.01025444  0.74915798  0.33859164    -0.14800
C2551       C  0.96645217  0.76258959  0.34939136     0.35900
C2552       C  0.96856888  0.76126528  0.36958567    -0.26100
C2553       C  0.01355449  0.74760433  0.37941787    -0.15400
C2554       C  0.53638875  0.78620634  0.36836375     0.36900
N2555       N  0.56882784  0.82266440  0.37785287    -0.89600
H2556       H  0.56054769  0.80800410  0.33990650     0.18100
H2557       H  0.93487565  0.77181342  0.37770640     0.18000
N2558       N  0.92010199  0.77818768  0.33992249    -0.88700
H2559       H  0.58824361  0.84501151  0.36780353     0.35400
H2560       H  0.59685878  0.80238359  0.38532358     0.40500
H2561       H  0.92749519  0.81280049  0.33298176     0.40100
H2562       H  0.89125940  0.78563251  0.34992044     0.35000
C2563       C  0.96841612  0.00737309  0.34880820    -0.26700
C2564       C  0.01507783  0.49739281  0.33901491    -0.14800
C2565       C  0.53884666  0.47221850  0.35017144     0.35900
C2566       C  0.53664502  0.47531651  0.37020964    -0.26100
C2567       C  0.01155997  0.49784297  0.37978585    -0.15400
C2568       C  0.96664604  0.00907778  0.36887972     0.36900
N2569       N  0.91871587  0.02207117  0.37754310    -0.89600
H2570       H  0.93353732  0.01529675  0.34093223     0.18100
H2571       H  0.56374489  0.45336286  0.37863999     0.18000
N2572       N  0.57617843  0.43891147  0.34178325    -0.88700
H2573       H  0.92375462  0.05417658  0.38627979     0.35400
H2574       H  0.90600154  0.99123128  0.38575029     0.40500
H2575       H  0.60109067  0.46048264  0.33338028     0.40100
H2576       H  0.55736537  0.41242822  0.33303937     0.35000
C2577       C  0.77705431  0.65329328  0.84575994    -0.26700
C2578       C  0.74719989  0.69377137  0.83853154    -0.14800
C2579       C  0.71983321  0.72479880  0.85163670     0.35900
C2580       C  0.72457830  0.71627683  0.87135684    -0.26100
C2581       C  0.75585340  0.67720198  0.87867726    -0.15400
C2582       C  0.78180681  0.64481239  0.86561861     0.36900
N2583       N  0.81497172  0.60469867  0.87204065    -0.89600
H2584       H  0.79807101  0.62897890  0.83593437     0.18100
H2585       H  0.70356005  0.74079685  0.88111418     0.18000
N2586       N  0.68587936  0.76452839  0.84541642    -0.88700
H2587       H  0.79355797  0.57862807  0.88000205     0.35400
H2588       H  0.84296470  0.62056081  0.88094962     0.40500
H2589       H  0.65937517  0.74895923  0.83581425     0.40100
H2590       H  0.70692229  0.79289683  0.83849306     0.35000
C2591       C  0.70650834  0.51239225  0.86987395    -0.26700
C2592       C  0.73799738  0.47762740  0.87966023    -0.14800
C2593       C  0.76924436  0.02754686  0.87079148     0.35900
C2594       C  0.77052058  0.02423871  0.85067570    -0.26100
C2595       C  0.74271653  0.48617963  0.83921902    -0.15400
C2596       C  0.70862134  0.51726746  0.84980005     0.36900
N2597       N  0.67484443  0.55224930  0.84012486    -0.89600
H2598       H  0.68010945  0.53596639  0.87797165     0.18100
H2599       H  0.79261897  0.99409936  0.84394494     0.18000
N2600       N  0.79829552  0.99189147  0.88213482    -0.88700
H2601       H  0.64979761  0.56938999  0.84988805     0.35400
H2602       H  0.69705187  0.58184144  0.83455764     0.40500
H2603       H  0.77243988  0.96661702  0.88844789     0.40100
H2604       H  0.82169737  0.96941566  0.87337268     0.35000
C2605       C  0.53357332  0.72493769  0.84939600    -0.26700
C2606       C  0.00099186  0.69191210  0.83864896    -0.14800
C2607       C  0.97767199  0.65003456  0.84796617     0.35900
C2608       C  0.98345738  0.64425309  0.86798830    -0.26100
C2609       C  0.01181479  0.67953213  0.87885251    -0.15400
C2610       C  0.53949422  0.71799654  0.86925081     0.36900
N2611       N  0.57338829  0.75059613  0.87994755    -0.89600
H2612       H  0.55428633  0.75539633  0.84232743     0.18100
H2613       H  0.96437528  0.61304548  0.87523139     0.18000
N2614       N  0.94701216  0.61451752  0.83722795    -0.88700
H2615       H  0.59037120  0.77764161  0.87096115     0.35400
H2616       H  0.60299683  0.72774281  0.88528077     0.40500
H2617       H  0.91538975  0.63449025  0.83189721     0.40100
H2618       H  0.93260369  0.58602620  0.84622288     0.35000
C2619       C  0.95279788  0.03445941  0.87019885    -0.26700
C2620       C  0.49083843  0.47628970  0.87958681    -0.14800
C2621       C  0.52021314  0.51428452  0.87038828     0.35900
C2622       C  0.52046888  0.51704606  0.85025772    -0.26100
C2623       C  0.49375360  0.48137510  0.83906931    -0.15400
C2624       C  0.95354496  0.02792226  0.85019299     0.36900
N2625       N  0.92043657  0.99106529  0.84125258    -0.89600
H2626       H  0.92758351  0.01103944  0.87881844     0.18100
H2627       H  0.54244084  0.54669240  0.84323868     0.18000
N2628       N  0.55069690  0.54912712  0.88151312    -0.88700
H2629       H  0.89892045  0.97168331  0.85155514     0.35400
H2630       H  0.89441442  0.01111912  0.83267729     0.40500
H2631       H  0.57860026  0.52768106  0.88865711     0.40100
H2632       H  0.57021916  0.57451141  0.87257485     0.35000
C2633       C  0.67462349  0.78291241  0.62190461    -0.26700
C2634       C  0.71969406  0.76485658  0.63060820    -0.14800
C2635       C  0.76040239  0.74902181  0.61871519     0.35900
C2636       C  0.75505772  0.75052179  0.59866755    -0.26100
C2637       C  0.70979807  0.76781826  0.58987880    -0.15400
C2638       C  0.66931943  0.78500718  0.60174280     0.36900
N2639       N  0.62384703  0.80647276  0.59342425    -0.89600
H2640       H  0.64355675  0.79624682  0.63088139     0.18100
H2641       H  0.78672257  0.73746984  0.58992048     0.18000
N2642       N  0.80718681  0.73050714  0.62686810    -0.88700
H2643       H  0.59876291  0.81864108  0.60416447     0.35400
H2644       H  0.60504791  0.77719491  0.58615573     0.40500
H2645       H  0.83699287  0.75340897  0.62183709     0.40100
H2646       H  0.81323665  0.69325678  0.62192152     0.35000
C2647       C  0.67526470  0.53717712  0.62148474    -0.26700
C2648       C  0.71990060  0.00788956  0.63028436    -0.14800
C2649       C  0.75977769  0.99017111  0.61828129     0.35900
C2650       C  0.75414490  0.99286103  0.59821613    -0.26100
C2651       C  0.71015388  0.01367256  0.58960319    -0.15400
C2652       C  0.66966529  0.53965340  0.60137212     0.36900
N2653       N  0.63072349  0.57153164  0.59301989    -0.89600
H2654       H  0.64904998  0.55828779  0.63055857     0.18100
H2655       H  0.78474365  0.97866305  0.58919597     0.18000
N2656       N  0.80557744  0.96856668  0.62636480    -0.88700
H2657       H  0.61032652  0.59070285  0.60372591     0.35400
H2658       H  0.60437486  0.54783792  0.58615272     0.40500
H2659       H  0.82662726  0.99854691  0.63234174     0.40100
H2660       H  0.82865712  0.95305290  0.61559005     0.35000
C2661       C  0.95980368  0.73051504  0.62017753    -0.26700
C2662       C  0.49440586  0.76090434  0.63055723    -0.14800
C2663       C  0.52704135  0.72796887  0.62012208     0.35900
C2664       C  0.52395290  0.72670817  0.59994182    -0.26100
C2665       C  0.48961816  0.75807180  0.58983803    -0.15400
C2666       C  0.96042737  0.72803168  0.59999273     0.36900
N2667       N  0.91935979  0.70336275  0.58987013    -0.89600
H2668       H  0.92808871  0.71382970  0.62792426     0.18100
H2669       H  0.54884956  0.70122268  0.59198967     0.18000
N2670       N  0.56187191  0.69449737  0.63001280    -0.88700
H2671       H  0.89158145  0.69034876  0.59944757     0.35400
H2672       H  0.93445992  0.67090986  0.58317360     0.40500
H2673       H  0.59015067  0.71709135  0.63632543     0.40100
H2674       H  0.58080188  0.67070006  0.62027704     0.35000
C2675       C  0.52311214  0.47720335  0.62006514    -0.26700
C2676       C  0.48951410  0.51006032  0.62977711    -0.14800
C2677       C  0.96974237  0.96228218  0.62005025     0.35900
C2678       C  0.97066709  0.96523961  0.59986180    -0.26100
C2679       C  0.49023988  0.50607900  0.58923781    -0.15400
C2680       C  0.52375480  0.47461092  0.59992401     0.36900
N2681       N  0.55659192  0.43845357  0.59040105    -0.89600
H2682       H  0.54864532  0.45293312  0.62827885     0.18100
H2683       H  0.94594886  0.94061902  0.59147555     0.18000
N2684       N  0.93670067  0.92643771  0.62951008    -0.88700
H2685       H  0.57540257  0.41536231  0.60042371     0.35400
H2686       H  0.58520533  0.45882379  0.58333995     0.40500
H2687       H  0.95989377  0.89995544  0.63664907     0.40100
H2688       H  0.91546968  0.90572852  0.61944570     0.35000
loop_ 
_geom_bond_atom_site_label_1 
_geom_bond_atom_site_label_2 
_geom_bond_distance 
_geom_bond_site_symmetry_2 
_ccdc_geom_bond_type 
O1          V681   1.899       .  S
O1         C2027   1.264       .  A
O2            V9   1.902       .  S
O2         C2028   1.263       .  A
O3            V9   1.896       .  S
O3           C13   1.263       .  A
O4          V681   1.899       .  S
O4           C14   1.264       .  A
O5          V682   1.897       .  S
O5         C1358   1.263   1_455  A
O6           V10   1.896   1_545  S
O6         C1357   1.263   1_455  A
O7          V682   1.901       .  S
O7           C12   1.264   1_455  A
O8           V10   1.905       .  S
O8           C11   1.266       .  A
V9          O673   1.901       .  S
V9          O676   1.902   1_545  S
V9         V1354   2.088       .  T
V10         O677   1.900       .  S
V10         O679   1.904   1_565  S
V10        V1353   2.088   1_455  T
C11        O2017   1.265   1_455  A
C11         C660   1.482       .  S
C12        O2018   1.263       .  A
C12          C68   1.460       .  S
C13        O1350   1.264       .  A
C13          C27   1.461       .  S
C14        O1349   1.262       .  A
C14          C28   1.462       .  S
O15          V23   1.890       .  S
O15          C25   1.262       .  A
O16          V23   1.893       .  S
O16        C1370   1.261   1_455  A
O17          V23   1.899       .  S
O17        C1371   1.264   1_455  A
O18          V23   1.900       .  S
O18        C1372   1.264       .  A
O19          V24   1.896       .  S
O19          C28   1.263       .  A
O20          V24   1.897       .  S
O20          C27   1.263       .  A
O21          V24   1.901       .  S
O21          C26   1.264       .  A
O22          V24   1.899       .  S
O22        C1369   1.264       .  A
V23        V1368   2.089   1_455  T
V24        V1367   2.089       .  T
C25        O1366   1.266   1_455  A
C25         C646   1.480       .  S
C26        O1360   1.263       .  A
C26          C82   1.461       .  S
C27        O1361   1.263       .  A
C28        O1362   1.264       .  A
O29          V37   1.904       .  S
O29          C39   1.267       .  A
O30         V709   1.909       .  S
O30         C712   1.265   1_565  A
O31         V709   1.898   1_545  S
O31          C41   1.263       .  A
O32          V37   1.892       .  S
O32          C42   1.262       .  A
O33          V38   1.896       .  S
O33          C42   1.263       .  A
O34         V710   1.898   1_545  S
O34          C41   1.263       .  A
O35          V38   1.902       .  S
O35          C40   1.264       .  A
O36         V710   1.908       .  S
O36         C711   1.266       .  A
V37         O702   1.907       .  S
V37         O703   1.895       .  S
V37          V38   2.089       .  T
V38         O706   1.899       .  S
V38         O708   1.902       .  S
C39         O708   1.264       .  A
C39         C632   1.488       .  S
C40         O702   1.265       .  A
C40         C768   1.466       .  S
C41          C55   1.463       .  S
C42          C56   1.457       .  S
O43          V51   1.900       .  S
O43          C53   1.264       .  A
O44          V51   1.901       .  S
O44          C54   1.264       .  A
O45          V51   1.897       .  S
O45          C55   1.263       .  A
O46          V51   1.895       .  S
O46          C56   1.263       .  A
O47          V52   1.893       .  S
O47          C56   1.263       .  A
O48          V52   1.898       .  S
O48          C55   1.264       .  A
O49          V52   1.905       .  S
O49          C54   1.264       .  A
O50          V52   1.902       .  S
O50          C53   1.266       .  A
V51          V52   2.088       .  T
C53         C618   1.490       .  S
C54         C110   1.463       .  S
O57        V1409   1.900       .  S
O57        C2083   1.264       .  A
O58          V65   1.897       .  S
O58          C68   1.262       .  A
O59          V65   1.905   1_455  S
O59          C69   1.265       .  A
O60        V1409   1.895       .  S
O60          C70   1.263       .  A
O61        V1410   1.900       .  S
O61         C742   1.264       .  A
O62          V66   1.893   1_455  S
O62         C741   1.262       .  A
O63        V1410   1.905       .  S
O63        C2084   1.265       .  A
O64          V66   1.911       .  S
O64          C67   1.266       .  A
V65        O1401   1.899       .  S
V65        O1404   1.901       .  S
V65         V738   2.089       .  T
V66        O1405   1.896       .  S
V66        O1407   1.905       .  S
V66         V737   2.088   1_545  T
C67        O2073   1.265       .  A
C67         C607   1.483       .  S
C68        O2079   1.265       .  A
C69         O734   1.262       .  A
C69         C770   1.463       .  S
C70         O733   1.264       .  A
C70         C769   1.462       .  S
O71          V79   1.902       .  S
O71          C81   1.266       .  A
O72        V1423   1.899       .  S
O72        C1426   1.262       .  A
O73        V1423   1.902   1_455  S
O73          C83   1.264       .  A
O74          V79   1.892       .  S
O74          C84   1.262       .  A
O75          V80   1.900       .  S
O75          C84   1.265       .  A
O76        V1424   1.896   1_455  S
O76          C83   1.264       .  A
O77          V80   1.898       .  S
O77          C82   1.262       .  A
O78        V1424   1.902       .  S
O78        C1425   1.265       .  A
V79        O1416   1.905       .  S
V79        O1417   1.895       .  S
V79          V80   2.089       .  T
V80        O1420   1.898       .  S
V80        O1422   1.897       .  S
C81        O1422   1.264       .  A
C81         C590   1.479       .  S
C82        O1416   1.264       .  A
C83         C112   1.465       .  S
C84         C111   1.460       .  S
O85          V93   1.904       .  S
O85         C767   1.266       .  A
O86          V93   1.904       .  S
O86         C768   1.264       .  A
O87          V93   1.897       .  S
O87         C769   1.263       .  A
O88          V93   1.901       .  S
O88         C770   1.264       .  A
O89          V94   1.894       .  S
O89          C98   1.263       .  A
O90          V94   1.898       .  S
O90          C97   1.263       .  A
O91          V94   1.908       .  S
O91          C96   1.266       .  A
O92          V94   1.911       .  S
O92          C95   1.266       .  A
V93         V766   2.088       .  T
V94         V765   2.088   1_545  T
C95         O757   1.266       .  A
C95         C579   1.488       .  S
C96         O758   1.264   1_545  A
C96         C712   1.471       .  S
C97         O759   1.264   1_545  A
C97         C742   1.462       .  S
C98         O760   1.264   1_545  A
C98         C741   1.463       .  S
O99         V107   1.894       .  S
O99         C109   1.263       .  A
O100        V107   1.899       .  S
O100        C110   1.262       .  A
O101        V107   1.897       .  S
O101        C111   1.264       .  A
O102        V107   1.904       .  S
O102        C112   1.265       .  A
O103        V108   1.895       .  S
O103        C112   1.263       .  A
O104        V108   1.896       .  S
O104        C111   1.262       .  A
O105        V108   1.907       .  S
O105        C110   1.266       .  A
O106        V108   1.908       .  S
O106        C109   1.266       .  A
V107        V108   2.088       .  T
C109        C562   1.483       .  S
O113        V121   1.904       .  S
O113        C123   1.266       .  A
O114        V793   1.903       .  S
O114        C796   1.264       .  A
O115        V793   1.898       .  S
O115        C125   1.263       .  A
O116        V121   1.897   1_545  S
O116        C126   1.263       .  A
O117        V122   1.893   1_545  S
O117       C1470   1.263       .  A
O118        V794   1.898       .  S
O118       C1469   1.264       .  A
O119        V122   1.905       .  S
O119       C1468   1.265   1_565  A
O120        V794   1.899       .  S
O120       C2139   1.264       .  A
V121        O786   1.904       .  S
V121        O787   1.900       .  S
V121       V1466   2.088       .  T
V122        O790   1.898       .  S
V122        O792   1.908       .  S
V122       V1465   2.088   1_455  T
C123       O2136   1.266       .  A
C123        C548   1.488       .  S
C124        O786   1.264   1_545  A
C124       O1463   1.265       .  A
C124       C1636   1.467       .  S
C125       O1462   1.263       .  A
C125        C139   1.460       .  S
C126       O1461   1.264       .  A
C126        C140   1.462       .  S
O127        V135   1.900       .  S
O127       C1481   1.266       .  A
O128        V135   1.901       .  S
O128       C1482   1.263       .  A
O129        V135   1.894       .  S
O129       C1483   1.262       .  A
O130        V135   1.893       .  S
O130       C1484   1.263       .  A
O131        V136   1.898       .  S
O131        C140   1.264       .  A
O132        V136   1.900       .  S
O132        C139   1.264       .  A
O133        V136   1.904       .  S
O133        C138   1.264       .  A
O134        V136   1.902       .  S
O134        C137   1.264       .  A
V135       V1480   2.088   1_455  T
V136       V1479   2.089       .  T
C137       O1471   1.264       .  A
C137        C534   1.479       .  S
C138       O1472   1.263       .  A
C138        C306   1.463       .  S
C139       O1473   1.262       .  A
C140       O1474   1.263       .  A
O141        V149   1.903       .  S
O141        C151   1.267       .  A
O142        V821   1.902       .  S
O142        C824   1.263       .  A
O143        V821   1.895       .  S
O143        C153   1.263       .  A
O144        V149   1.899   1_545  S
O144        C154   1.264       .  A
O145        V150   1.895   1_545  S
O145        C154   1.262       .  A
O146        V822   1.898       .  S
O146        C153   1.264       .  A
O147        V150   1.907       .  S
O147        C152   1.266   1_565  A
O148        V822   1.903       .  S
O148        C823   1.265       .  A
V149        O814   1.905       .  S
V149        O815   1.904       .  S
V149        V150   2.088       .  T
V150        O818   1.896       .  S
V150        O820   1.911       .  S
C151        O820   1.267       .  A
C151        C520   1.492       .  S
C152        O814   1.263   1_545  A
C152        C320   1.468       .  S
C153        C167   1.461       .  S
C154        C168   1.461       .  S
O155        V163   1.903       .  S
O155        C165   1.265       .  A
O156        V163   1.902       .  S
O156        C166   1.264       .  A
O157        V163   1.897       .  S
O157        C167   1.263       .  A
O158        V163   1.897       .  S
O158        C168   1.264       .  A
O159        V164   1.896       .  S
O159        C168   1.263       .  A
O160        V164   1.896       .  S
O160        C167   1.263       .  A
O161        V164   1.902       .  S
O161        C166   1.263       .  A
O162        V164   1.897       .  S
O162        C165   1.264       .  A
V163        V164   2.089       .  T
C165        C506   1.479       .  S
C166        C334   1.462       .  S
O169        V849   1.898       .  S
O169        C851   1.263       .  A
O170        V177   1.904       .  S
O170       C1524   1.264       .  A
O171        V177   1.895       .  S
O171        C181   1.263       .  A
O172        V849   1.903       .  S
O172        C182   1.265       .  A
O173        V850   1.898       .  S
O173       C1526   1.264       .  A
O174        V178   1.895   1_545  S
O174       C1525   1.263       .  A
O175        V850   1.904       .  S
O175        C852   1.265       .  A
O176        V178   1.912       .  S
O176       C1523   1.268       .  A
V177        O841   1.902       .  S
V177        O844   1.896   1_545  S
V177       V1522   2.088       .  T
V178        O845   1.896       .  S
V178        O847   1.910       .  S
V178       V1521   2.087   1_455  T
C179        O841   1.265       .  A
C179       O1520   1.267       .  A
C179        C551   1.488       .  S
C180       O1514   1.264   1_455  A
C180        O847   1.267       .  A
C180        C404   1.473       .  S
C181       O1518   1.264       .  A
C181        C195   1.462       .  S
C182       O1517   1.263       .  A
C182        C196   1.464       .  S
O183        V191   1.899       .  S
O183       C1537   1.265       .  A
O184        V191   1.900       .  S
O184       C1538   1.264       .  A
O185        V191   1.896       .  S
O185       C1539   1.263       .  A
O186        V191   1.898       .  S
O186       C1540   1.263       .  A
O187        V192   1.902       .  S
O187        C196   1.264       .  A
O188        V192   1.896       .  S
O188        C195   1.263       .  A
O189        V192   1.899       .  S
O189        C194   1.264       .  A
O190        V192   1.899       .  S
O190        C193   1.264       .  A
V191       V1536   2.088   1_455  T
V192       V1535   2.089       .  T
C193       O1527   1.265       .  A
C193        C537   1.480       .  S
C194       O1528   1.264       .  A
C194       C1762   1.467       .  S
C195       O1529   1.264       .  A
C196       O1530   1.263       .  A
O197        V205   1.894       .  S
O197        C207   1.264       .  A
O198        V877   1.898       .  S
O198        C880   1.264       .  A
O199        V877   1.897   1_545  S
O199        C209   1.263       .  A
O200        V205   1.899       .  S
O200        C210   1.264       .  A
O201        V206   1.897       .  S
O201        C210   1.263       .  A
O202        V878   1.898   1_545  S
O202        C209   1.263       .  A
O203        V206   1.907       .  S
O203        C208   1.266       .  A
O204        V878   1.916       .  S
O204        C879   1.269       .  A
V205        O870   1.896       .  S
V205        O871   1.897       .  S
V205        V206   2.089       .  T
V206        O874   1.898       .  S
V206        O876   1.907       .  S
C207        O876   1.266       .  A
C207        C523   1.483       .  S
C208        O870   1.263       .  A
C208        C432   1.468       .  S
C209        C224   1.462       .  S
C210        C223   1.464       .  S
O211        V219   1.896       .  S
O211        C221   1.264       .  A
O212        V219   1.895       .  S
O212        C222   1.264       .  A
O213        V219   1.899       .  S
O213        C223   1.264       .  A
O214        V219   1.896       .  S
O214        C224   1.263       .  A
O215        V220   1.899       .  S
O215        C224   1.264       .  A
O216        V220   1.897       .  S
O216        C223   1.263       .  A
O217        V220   1.907       .  S
O217        C222   1.265       .  A
O218        V220   1.905       .  S
O218        C221   1.265       .  A
V219        V220   2.089       .  T
C221        C509   1.480       .  S
C222        C446   1.468       .  S
O225        V233   1.916       .  S
O225        C235   1.269       .  A
O226       V1577   1.916       .  S
O226       C1580   1.267   1_554  A
O227       V1577   1.897       .  S
O227        C237   1.263       .  A
O228        V233   1.894   1_455  S
O228        C238   1.262       .  A
O229        V234   1.895   1_455  S
O229        C910   1.263       .  A
O230       V1578   1.899       .  S
O230        C909   1.264       .  A
O231        V234   1.904       .  S
O231        C908   1.265   1_554  A
O232       V1578   1.903       .  S
O232       C2251   1.265       .  A
V233       O1570   1.918       .  S
V233       O1571   1.894       .  S
V233        V906   2.088       .  T
V234       O1574   1.899       .  S
V234       O1576   1.903       .  S
V234        V905   2.089       .  T
C235       O2248   1.262       .  A
C235        C495   1.490       .  S
C236       O1570   1.268   1_556  A
C236        O903   1.262   1_556  A
C236        C348   1.473       .  S
C237        O902   1.264       .  A
C237        C266   1.462       .  S
C238        O901   1.264       .  A
C238        C265   1.461       .  S
O239        V247   1.906       .  S
O239        C249   1.266       .  A
O240        V247   1.906       .  S
O240        C250   1.266   1_554  A
O241        V247   1.895       .  S
O241        C251   1.263       .  A
O242       V1591   1.898       .  S
O242        C252   1.263       .  A
O243       V1592   1.898       .  S
O243        C252   1.263       .  A
O244        V248   1.898       .  S
O244        C251   1.264       .  A
O245        V248   1.897       .  S
O245        C250   1.263   1_554  A
O246        V248   1.895       .  S
O246        C249   1.263       .  A
V247       O1586   1.898       .  S
V247        V248   2.088       .  T
V248       O1587   1.897       .  S
C249        C478   1.485       .  S
C250        C362   1.467       .  S
C251        C280   1.462       .  S
C252        C279   1.463       .  S
O253        V261   1.912       .  S
O253        C263   1.267       .  A
O254        V261   1.914       .  S
O254        C264   1.266   1_554  A
O255        V261   1.897       .  S
O255        C265   1.263       .  A
O256        V261   1.899       .  S
O256        C266   1.264       .  A
O257        V262   1.895       .  S
O257        C938   1.263       .  A
O258        V262   1.898       .  S
O258        C937   1.264       .  A
O259        V262   1.907       .  S
O259        C936   1.265   1_554  A
O260        V262   1.905       .  S
O260        C935   1.266       .  A
V261        V934   2.088       .  T
V262        V933   2.089       .  T
C263        O932   1.265       .  A
C263        C467   1.490       .  S
C264        O931   1.264   1_556  A
C264        C376   1.473       .  S
C265        O930   1.263       .  A
C266        O929   1.263       .  A
O267        V275   1.905       .  S
O267        C277   1.266       .  A
O268        V275   1.906       .  S
O268        C278   1.265   1_554  A
O269        V275   1.897       .  S
O269        C279   1.263       .  A
O270        V275   1.899       .  S
O270        C280   1.264       .  A
O271        V276   1.896       .  S
O271        C280   1.263       .  A
O272        V276   1.898       .  S
O272        C279   1.263       .  A
O273        V276   1.897       .  S
O273        C278   1.264   1_554  A
O274        V276   1.897       .  S
O274        C277   1.263       .  A
V275        V276   2.089       .  T
C277        C450   1.481       .  S
C278        C390   1.468       .  S
O281       V1633   1.904       .  S
O281       C1635   1.264       .  A
O282        V289   1.902       .  S
O282        C292   1.264       .  A
O283        V289   1.897   1_455  S
O283        C293   1.264       .  A
O284       V1633   1.897       .  S
O284        C294   1.264       .  A
O285       V1634   1.895       .  S
O285        C966   1.263       .  A
O286        V290   1.898       .  S
O286        C965   1.263       .  A
O287       V1634   1.904       .  S
O287       C2308   1.265       .  A
O288        V290   1.902       .  S
O288        C963   1.265   1_455  A
V289       O1625   1.906       .  S
V289       O1628   1.896       .  S
V289        V962   2.088   1_545  T
V290       O1629   1.899   1_455  S
V290       O1631   1.901       .  S
V290        V961   2.089       .  T
C291       O1625   1.265       .  A
C291        O960   1.267   1_545  A
C291        C492   1.490       .  S
C292       O2303   1.264   1_545  A
C292       C1468   1.466   1_655  S
C293        O958   1.264   1_545  A
C293        C322   1.463       .  S
C294        O957   1.262   1_545  A
C294        C321   1.460       .  S
O295        V303   1.902       .  S
O295        C305   1.264       .  A
O296       V1647   1.900       .  S
O296       C1650   1.264       .  A
O297       V1647   1.898       .  S
O297        C307   1.264       .  A
O298        V303   1.895       .  S
O298        C308   1.263       .  A
O299        V304   1.896       .  S
O299        C308   1.263       .  A
O300       V1648   1.898       .  S
O300        C307   1.263       .  A
O301        V304   1.903       .  S
O301        C306   1.263       .  A
O302       V1648   1.898       .  S
O302       C1649   1.265       .  A
V303       O1640   1.903       .  S
V303       O1641   1.899       .  S
V303        V304   2.089       .  T
V304       O1644   1.894       .  S
V304       O1646   1.897       .  S
C305       O1646   1.265       .  A
C305        C481   1.484       .  S
C306       O1640   1.264       .  A
C307        C336   1.463       .  S
C308        C335   1.460       .  S
O309        V317   1.910       .  S
O309        C319   1.267       .  A
O310        V317   1.907       .  S
O310        C320   1.266       .  A
O311        V317   1.895       .  S
O311        C321   1.262       .  A
O312        V317   1.895       .  S
O312        C322   1.263       .  A
O313        V318   1.901       .  S
O313        C994   1.265       .  A
O314        V318   1.896       .  S
O314        C993   1.263       .  A
O315        V318   1.901       .  S
O315        C992   1.263       .  A
O316        V318   1.900       .  S
O316        C991   1.264       .  A
V317        V990   2.088   1_545  T
V318        V989   2.089       .  T
C319        O988   1.265   1_545  A
C319        C464   1.491       .  S
C320        O987   1.263   1_545  A
C321        O986   1.264   1_545  A
C322        O985   1.264   1_545  A
O323        V331   1.902       .  S
O323        C333   1.265       .  A
O324        V331   1.902       .  S
O324        C334   1.264       .  A
O325        V331   1.895       .  S
O325        C335   1.263       .  A
O326        V331   1.895       .  S
O326        C336   1.263       .  A
O327        V332   1.901       .  S
O327        C336   1.264       .  A
O328        V332   1.897       .  S
O328        C335   1.263       .  A
O329        V332   1.902       .  S
O329        C334   1.263       .  A
O330        V332   1.900       .  S
O330        C333   1.265       .  A
V331        V332   2.089       .  T
C333        C453   1.480       .  S
O337        V345   1.905       .  S
O337       C1019   1.265       .  A
O338       V1689   1.906       .  S
O338       C2364   1.265       .  A
O339       V1689   1.897       .  S
O339       C1021   1.263       .  A
O340        V345   1.898   1_455  S
O340       C1022   1.264       .  A
O341        V346   1.896   1_455  S
O341        C350   1.263       .  A
O342       V1690   1.900       .  S
O342        C349   1.264       .  A
O343        V346   1.915       .  S
O343        C348   1.266       .  A
O344       V1690   1.911       .  S
O344       C1691   1.267       .  A
V345       O1682   1.905       .  S
V345       O1683   1.896       .  S
V345       V1018   2.088       .  T
V346       O1686   1.899       .  S
V346       O1688   1.913       .  S
V346       V1017   2.088       .  T
C347       O1009   1.264       .  A
C347       O1688   1.267       .  A
C347        C604   1.482       .  S
C348       O2354   1.264       .  A
C349       O1011   1.263       .  A
C349        C378   1.462       .  S
C350       O1012   1.263       .  A
C350        C377   1.462       .  S
O351       V1703   1.900       .  S
O351       C1705   1.266       .  A
O352        V359   1.900       .  S
O352        C362   1.265       .  A
O353        V359   1.895       .  S
O353        C363   1.262       .  A
O354       V1703   1.895       .  S
O354        C364   1.262       .  A
O355       V1704   1.899       .  S
O355        C364   1.264       .  A
O356        V360   1.899       .  S
O356        C363   1.264       .  A
O357       V1704   1.902       .  S
O357       C1706   1.264       .  A
O358        V360   1.900       .  S
O358        C361   1.264       .  A
V359       O1695   1.900       .  S
V359       O1698   1.899       .  S
V359        V360   2.089       .  T
V360       O1699   1.898       .  S
V360       O1701   1.902       .  S
C361       O1695   1.265       .  A
C361        C593   1.480       .  S
C362       O1701   1.264       .  A
C363        C392   1.462       .  S
C364        C391   1.461       .  S
O365        V373   1.906       .  S
O365       C1047   1.266       .  A
O366        V373   1.908       .  S
O366       C1048   1.265       .  A
O367        V373   1.898       .  S
O367       C1049   1.263       .  A
O368        V373   1.895       .  S
O368       C1050   1.263       .  A
O369        V374   1.898       .  S
O369        C378   1.263       .  A
O370        V374   1.897       .  S
O370        C377   1.263       .  A
O371        V374   1.916       .  S
O371        C376   1.268       .  A
O372        V374   1.916       .  S
O372        C375   1.268       .  A
V373       V1046   2.088       .  T
V374       V1045   2.088       .  T
C375       O1037   1.263       .  A
C375        C576   1.487       .  S
C376       O1038   1.263       .  A
C377       O1039   1.264       .  A
C378       O1040   1.263       .  A
O379        V387   1.897       .  S
O379        C389   1.263       .  A
O380        V387   1.896       .  S
O380        C390   1.263       .  A
O381        V387   1.899       .  S
O381        C391   1.264       .  A
O382        V387   1.899       .  S
O382        C392   1.264       .  A
O383        V388   1.897       .  S
O383        C392   1.263       .  A
O384        V388   1.893       .  S
O384        C391   1.262       .  A
O385        V388   1.908       .  S
O385        C390   1.266       .  A
O386        V388   1.906       .  S
O386        C389   1.266       .  A
V387        V388   2.088       .  T
C389        C565   1.483       .  S
O393       V1073   1.901       .  S
O393       C1075   1.265       .  A
O394        V401   1.906       .  S
O394        C404   1.265       .  A
O395        V401   1.897   1_545  S
O395        C405   1.263       .  A
O396       V1073   1.900       .  S
O396        C406   1.264       .  A
O397       V1074   1.898       .  S
O397       C1750   1.263       .  A
O398        V402   1.895       .  S
O398       C1749   1.262       .  A
O399       V1074   1.904       .  S
O399       C2420   1.266       .  A
O400        V402   1.911       .  S
O400       C1747   1.267       .  A
V401       O1065   1.905   1_565  S
V401       O1068   1.898       .  S
V401       V1746   2.088   1_455  T
V402       O1069   1.895   1_545  S
V402       O1071   1.909       .  S
V402       V1745   2.088       .  T
C403       O1065   1.266   1_565  A
C403       O1744   1.265   1_455  A
C403        C663   1.483       .  S
C404       O2415   1.266   1_465  A
C405       O1742   1.264   1_455  A
C405        C420   1.464       .  S
C406       O1741   1.263   1_455  A
C406        C419   1.462       .  S
O407        V415   1.897       .  S
O407        C417   1.265       .  A
O408        V415   1.900       .  S
O408        C418   1.264       .  A
O409        V415   1.899       .  S
O409        C419   1.263       .  A
O410        V415   1.898       .  S
O410        C420   1.264       .  A
O411        V416   1.902       .  S
O411       C1764   1.265       .  A
O412        V416   1.900       .  S
O412       C1763   1.264       .  A
O413        V416   1.899       .  S
O413       C1762   1.264       .  A
O414        V416   1.899       .  S
O414       C1761   1.263       .  A
V415       V1760   2.089   1_455  T
V416       V1759   2.089       .  T
C417       O1758   1.263   1_455  A
C417        C649   1.477       .  S
C418       O1757   1.263   1_455  A
C418       C1538   1.462       .  S
C419       O1756   1.263   1_455  A
C420       O1755   1.264   1_455  A
O421        V429   1.906       .  S
O421        C431   1.266       .  A
O422       V1101   1.913       .  S
O422       C1104   1.266       .  A
O423       V1101   1.899   1_545  S
O423        C433   1.264       .  A
O424        V429   1.897       .  S
O424        C434   1.263       .  A
O425        V430   1.896       .  S
O425        C434   1.263       .  A
O426       V1102   1.896   1_545  S
O426        C433   1.263       .  A
O427        V430   1.898       .  S
O427        C432   1.264       .  A
O428       V1102   1.903       .  S
O428       C1103   1.266       .  A
V429       O1094   1.905       .  S
V429       O1095   1.898       .  S
V429        V430   2.088       .  T
V430       O1098   1.896       .  S
V430       O1100   1.897       .  S
C431       O1100   1.265       .  A
C431        C635   1.486       .  S
C432       O1094   1.265       .  A
C433        C448   1.463       .  S
C434        C447   1.460       .  S
O435        V443   1.907       .  S
O435        C445   1.267       .  A
O436        V443   1.908       .  S
O436        C446   1.266       .  A
O437        V443   1.895       .  S
O437        C447   1.262       .  A
O438        V443   1.896       .  S
O438        C448   1.263       .  A
O439        V444   1.900       .  S
O439        C448   1.264       .  A
O440        V444   1.897       .  S
O440        C447   1.264       .  A
O441        V444   1.894       .  S
O441        C446   1.263       .  A
O442        V444   1.894       .  S
O442        C445   1.263       .  A
V443        V444   2.088       .  T
C445        C621   1.488       .  S
C449        C450   1.405       .  A
C449        C454   1.408       .  A
C449        H456   1.084       .  S
C450        C451   1.414       .  A
C451        C452   1.405       .  A
C451        N458   1.439       .  S
C452        C453   1.404       .  A
C452        H457   1.084       .  S
C453        C454   1.413       .  A
C454        N455   1.439       .  S
N455        H459   1.046       .  S
N455        H460   1.043       .  S
N458        H461   1.044       .  S
N458        H462   1.046       .  S
C463        C464   1.408       .  A
C463        C468   1.406       .  A
C463        H470   1.084       .  S
C464       C1137   1.418       .  A
C465        C466   1.401       .  A
C465       C1136   1.416       .  A
C465        N472   1.434       .  S
C466       C1139   1.405       .  A
C466        H471   1.084       .  S
C467        C468   1.417       .  A
C467       C1138   1.404       .  A
C468        N469   1.432       .  S
N469        H473   1.043       .  S
N469        H474   1.045       .  S
N472        H475   1.045       .  S
N472        H476   1.043       .  S
C477        C482   1.409       .  A
C477       C1822   1.406   1_655  A
C477        H484   1.084       .  S
C478        C479   1.415       .  A
C478       C1821   1.405       .  A
C479        C480   1.404       .  A
C479        N486   1.437       .  S
C480        C481   1.403       .  A
C480        H485   1.084       .  S
C481       C1826   1.414       .  A
C482       C1825   1.414   1_655  A
C482        N483   1.438       .  S
N483        H487   1.046       .  S
N483        H488   1.043       .  S
N486        H489   1.043       .  S
N486        H490   1.045       .  S
C491        C496   1.400       .  A
C491       C1164   1.403   1_455  A
C491        H498   1.084       .  S
C492       C1163   1.403   1_655  A
C492       C1837   1.419       .  A
C493        C494   1.405       .  A
C493       C1836   1.419       .  A
C493        N500   1.432       .  S
C494       C1839   1.405       .  A
C494        H499   1.084       .  S
C495       C1838   1.405       .  A
C495       C1168   1.420   1_655  A
C496       C1167   1.414   1_455  A
C496        N497   1.433       .  S
N497        H501   1.043       .  S
N497        H502   1.046       .  S
N500        H503   1.046       .  S
N500        H504   1.043       .  S
C505        C506   1.404       .  A
C505        C510   1.401       .  A
C505        H512   1.084       .  S
C506        C507   1.416       .  A
C507        C508   1.398       .  A
C507        N514   1.433       .  S
C508        C509   1.403       .  A
C508        H513   1.084       .  S
C509        C510   1.416       .  A
C510        N511   1.432       .  S
N511        H515   1.042       .  S
N511        H516   1.046       .  S
N514        H517   1.046       .  S
N514        H518   1.044       .  S
C519        C520   1.404   1_545  A
C519        C524   1.405       .  A
C519        H526   1.083       .  S
C520       C1193   1.416       .  A
C521        C522   1.409       .  A
C521       C1192   1.415       .  A
C521        N528   1.438       .  S
C522        C523   1.405       .  A
C522        H527   1.084       .  S
C523       C1196   1.414       .  A
C524       C1195   1.416   1_545  A
C524        N525   1.439       .  S
N525        H529   1.046       .  S
N525        H530   1.046       .  S
N528        H531   1.046       .  S
N528        H532   1.046       .  S
C533        C538   1.405       .  A
C533       C1878   1.406       .  A
C533        H540   1.083       .  S
C534        C535   1.412       .  A
C534       C1877   1.404       .  A
C535        C536   1.406       .  A
C535        N542   1.438       .  S
C536        C537   1.405       .  A
C536        H541   1.084       .  S
C537       C1882   1.412       .  A
C538       C1881   1.415       .  A
C538        N539   1.438       .  S
N539        H543   1.046       .  S
N539        H544   1.046       .  S
N542        H545   1.045       .  S
N542        H546   1.046       .  S
C547        C552   1.399       .  A
C547       C1220   1.404       .  A
C547        H554   1.084       .  S
C548       C1219   1.405   1_565  A
C548       C1893   1.417       .  A
C549        C550   1.405       .  A
C549       C1892   1.421       .  A
C549        N556   1.432       .  S
C550       C1895   1.408       .  A
C550        H555   1.084       .  S
C551       C1894   1.407   1_545  A
C551       C1224   1.417       .  A
C552       C1223   1.416       .  A
C552        N553   1.433       .  S
N553        H557   1.046       .  S
N553        H558   1.044       .  S
N556        H559   1.045   1_565  S
N556        H560   1.045       .  S
C561        C562   1.405       .  A
C561        C566   1.399       .  A
C561        H568   1.084       .  S
C562        C563   1.415       .  A
C563        C564   1.402       .  A
C563        N570   1.432       .  S
C564        C565   1.406       .  A
C564        H569   1.084       .  S
C565        C566   1.416       .  A
C566        N567   1.433       .  S
N567        H571   1.044       .  S
N567        H572   1.046       .  S
N570        H573   1.046       .  S
N570        H574   1.044       .  S
C575        C576   1.405       .  A
C575        C580   1.413       .  A
C575        H582   1.084       .  S
C576       C1249   1.415       .  A
C577        C578   1.407       .  A
C577       C1248   1.413       .  A
C577        N584   1.438       .  S
C578       C1251   1.404       .  A
C578        H583   1.084       .  S
C579        C580   1.416       .  A
C579       C1250   1.402       .  A
C580        N581   1.437       .  S
N581        H585   1.046       .  S
N581        H586   1.042       .  S
N584        H587   1.041       .  S
N584        H588   1.046       .  S
C589        C594   1.408       .  A
C589       C1934   1.405   1_455  A
C589        H596   1.084       .  S
C590        C591   1.411       .  A
C590       C1933   1.405       .  A
C591        C592   1.405       .  A
C591        N598   1.438       .  S
C592        C593   1.405       .  A
C592        H597   1.084       .  S
C593       C1938   1.412       .  A
C594       C1937   1.413       .  A
C594        N595   1.438       .  S
N595        H599   1.046       .  S
N595        H600   1.046       .  S
N598        H601   1.046       .  S
N598        H602   1.046       .  S
C603        C608   1.408       .  A
C603       C2620   1.403       .  A
C603        H610   1.084       .  S
C604        C605   1.413   1_655  A
C604       C2619   1.403       .  A
C605        C606   1.412       .  A
C605        N612   1.438       .  S
C606        C607   1.405   1_455  A
C606        H611   1.084       .  S
C607       C2624   1.412       .  A
C608       C2623   1.415       .  A
C608        N609   1.438       .  S
N609        H613   1.046       .  S
N609        H614   1.046       .  S
N612        H615   1.046       .  S
N612        H616   1.046       .  S
C617        C618   1.404       .  A
C617        C622   1.405       .  A
C617        H624   1.083       .  S
C618        C619   1.416       .  A
C619        C620   1.407       .  A
C619        N626   1.436       .  S
C620        C621   1.404       .  A
C620        H625   1.084       .  S
C621        C622   1.417       .  A
C622        N623   1.439       .  S
N623        H627   1.046       .  S
N623        H628   1.045       .  S
N626        H629   1.043       .  S
N626        H630   1.045       .  S
C631        C636   1.405       .  A
C631       C1304   1.406   1_545  A
C631        H638   1.084       .  S
C632        C633   1.419       .  A
C632       C1303   1.403       .  A
C633        C634   1.411       .  A
C633        N640   1.438       .  S
C634        C635   1.405       .  A
C634        H639   1.084       .  S
C635       C1308   1.410       .  A
C636       C1307   1.412   1_545  A
C636        N637   1.432       .  S
N637        H641   1.046       .  S
N637        H642   1.046       .  S
N640        H643   1.042       .  S
N640        H644   1.045       .  S
C645        C650   1.407       .  A
C645       C1990   1.404       .  A
C645        H652   1.084       .  S
C646        C647   1.417       .  A
C646       C1989   1.404   1_455  A
C647        C648   1.404       .  A
C647        N654   1.439       .  S
C648        C649   1.402       .  A
C648        H653   1.083       .  S
C649       C1994   1.410   1_455  A
C650       C1993   1.411       .  A
C650        N651   1.438       .  S
N651        H655   1.045       .  S
N651        H656   1.045       .  S
N654        H657   1.045       .  S
N654        H658   1.046       .  S
C659        C660   1.404   1_545  A
C659        C664   1.408       .  A
C659        H666   1.084       .  S
C660       C2677   1.412   1_455  A
C661        C662   1.408       .  A
C661       C2676   1.414       .  A
C661        N668   1.439       .  S
C662       C2679   1.404       .  A
C662        H667   1.084       .  S
C663        C664   1.412   1_565  A
C663       C2678   1.405   1_455  A
C664        N665   1.438       .  S
N665        H669   1.046       .  S
N665        H670   1.046       .  S
N668        H671   1.044       .  S
N668        H672   1.046       .  S
O673       C1355   1.264       .  A
O674        V681   1.902       .  S
O674       C1356   1.263       .  A
O675        V681   1.896       .  S
O675        C685   1.263       .  A
O676        C686   1.265       .  A
O677       C2030   1.264   1_455  A
O678        V682   1.894       .  S
O678       C2029   1.263   1_455  A
O679        C684   1.264   1_455  A
O680        V682   1.899       .  S
O680        C683   1.265   1_455  A
V681       V2026   2.089       .  T
V682       V2025   2.089   1_455  T
C683       O1345   1.264       .  A
C683       C1332   1.477       .  S
C684       O1346   1.263       .  A
C684        C740   1.464       .  S
C685       O2022   1.263       .  A
C685        C699   1.460       .  S
C686       O2021   1.264       .  A
C686        C700   1.468       .  S
O687        V695   1.901       .  S
O687        C697   1.265   1_455  A
O688        V695   1.899       .  S
O688       C2042   1.263   1_455  A
O689        V695   1.896       .  S
O689       C2043   1.263   1_455  A
O690        V695   1.899       .  S
O690       C2044   1.264   1_455  A
O691        V696   1.899       .  S
O691        C700   1.264       .  A
O692        V696   1.897       .  S
O692        C699   1.263       .  A
O693        V696   1.907       .  S
O693        C698   1.265       .  A
O694        V696   1.907       .  S
O694       C2041   1.266       .  A
V695       V2040   2.089   1_455  T
V696       V2039   2.088       .  T
C697       O2038   1.266       .  A
C697       C1318   1.487   1_655  S
C698       O2032   1.265       .  A
C698        C754   1.469       .  S
C699       O2033   1.263       .  A
C700       O2034   1.265       .  A
O701        V709   1.908       .  S
O701        C711   1.268       .  A
O703        C713   1.262       .  A
O704        V709   1.904       .  S
O704        C714   1.265       .  A
O705        V710   1.900       .  S
O705        C714   1.264       .  A
O706        C713   1.264       .  A
O707        V710   1.906   1_545  S
O707        C712   1.265       .  A
V709        V710   2.087       .  T
C711       C1304   1.497       .  S
C713        C727   1.461       .  S
C714        C728   1.469       .  S
O715        V723   1.905       .  S
O715        C725   1.266       .  A
O716        V723   1.903       .  S
O716        C726   1.264       .  A
O717        V723   1.896       .  S
O717        C727   1.263       .  A
O718        V723   1.901       .  S
O718        C728   1.264       .  A
O719        V724   1.904       .  S
O719        C728   1.265       .  A
O720        V724   1.898       .  S
O720        C727   1.264       .  A
O721        V724   1.907       .  S
O721        C726   1.264       .  A
O722        V724   1.907       .  S
O722        C725   1.267       .  A
V723        V724   2.087       .  T
C725       C1290   1.497       .  S
C726        C782   1.466       .  S
O729       V2081   1.900   1_545  S
O729       C1411   1.265       .  A
O730        V737   1.902       .  S
O730        C740   1.262   1_565  A
O731        V737   1.903   1_455  S
O731        C741   1.265   1_565  A
O732       V2081   1.894       .  S
O732        C742   1.263   1_565  A
O733       V2082   1.899       .  S
O734        V738   1.891   1_455  S
O735       V2082   1.906       .  S
O735       C1412   1.264       .  A
O736        V738   1.906       .  S
O736        C739   1.267       .  A
V737       O2073   1.898   1_565  S
V737       O2076   1.900       .  S
V738       O2077   1.895       .  S
V738       O2079   1.905       .  S
C739       O1401   1.264       .  A
C739       C1279   1.482       .  S
C740       O1407   1.266       .  A
O743        V751   1.909       .  S
O743        C753   1.266       .  A
O744       V2095   1.900       .  S
O744       C2098   1.264       .  A
O745       V2095   1.904   1_455  S
O745        C755   1.264       .  A
O746        V751   1.892       .  S
O746        C756   1.261       .  A
O747        V752   1.901       .  S
O747        C756   1.265       .  A
O748       V2096   1.894   1_455  S
O748        C755   1.263       .  A
O749        V752   1.907       .  S
O749        C754   1.263       .  A
O750       V2096   1.900       .  S
O750       C2097   1.266       .  A
V751       O2088   1.907       .  S
V751       O2089   1.892       .  S
V751        V752   2.089       .  T
V752       O2092   1.900       .  S
V752       O2094   1.900       .  S
C753       O2094   1.265       .  A
C753       C1262   1.484       .  S
C754       O2088   1.266       .  A
C755        C784   1.464       .  S
C756        C783   1.461       .  S
O757        V765   1.901   1_545  S
O758        V765   1.908       .  S
O759        V765   1.897       .  S
O760        V765   1.901       .  S
O761        V766   1.894       .  S
O761        C770   1.263       .  A
O762        V766   1.898       .  S
O762        C769   1.263       .  A
O763        V766   1.905       .  S
O763        C768   1.264       .  A
O764        V766   1.902       .  S
O764        C767   1.265       .  A
C767       C1251   1.483       .  S
O771        V779   1.905       .  S
O771        C781   1.265       .  A
O772        V779   1.902       .  S
O772        C782   1.264       .  A
O773        V779   1.899       .  S
O773        C783   1.265       .  A
O774        V779   1.905       .  S
O774        C784   1.265       .  A
O775        V780   1.893       .  S
O775        C784   1.263       .  A
O776        V780   1.894       .  S
O776        C783   1.262       .  A
O777        V780   1.908       .  S
O777        C782   1.264       .  A
O778        V780   1.903       .  S
O778        C781   1.266       .  A
V779        V780   2.088       .  T
C781       C1234   1.485       .  S
O785        V793   1.901       .  S
O785        C795   1.265       .  A
O787        C797   1.264       .  A
O788        V793   1.896       .  S
O788        C798   1.264       .  A
O789        V794   1.901       .  S
O789       C2142   1.264       .  A
O790       C2141   1.263       .  A
O791        V794   1.901       .  S
O791       C2140   1.263       .  A
O792       C1467   1.266       .  A
V793       V2138   2.089       .  T
V794       V2137   2.088   1_455  T
C795       O1464   1.264       .  A
C795       C1220   1.481       .  S
C796       O2135   1.264       .  A
C796       C2308   1.463       .  S
C797       O2134   1.264       .  A
C797        C811   1.466       .  S
C798       O2133   1.263       .  A
C798        C812   1.463       .  S
O799        V807   1.904       .  S
O799       C2153   1.266       .  A
O800        V807   1.903       .  S
O800       C2154   1.263       .  A
O801        V807   1.901       .  S
O801       C2155   1.265       .  A
O802        V807   1.901       .  S
O802       C2156   1.264       .  A
O803        V808   1.893       .  S
O803        C812   1.262       .  A
O804        V808   1.898       .  S
O804        C811   1.263       .  A
O805        V808   1.907       .  S
O805        C810   1.265       .  A
O806        V808   1.909       .  S
O806        C809   1.266       .  A
V807       V2152   2.088   1_455  T
V808       V2151   2.087       .  T
C809       O2143   1.266       .  A
C809       C1206   1.489       .  S
C810       O2144   1.264       .  A
C810        C978   1.468       .  S
C811       O2145   1.265       .  A
C812       O2146   1.265       .  A
O813        V821   1.897       .  S
O813        C823   1.265       .  A
O815        C825   1.265       .  A
O816        V821   1.894       .  S
O816        C826   1.263       .  A
O817        V822   1.899       .  S
O817        C826   1.264       .  A
O818        C825   1.263       .  A
O819        V822   1.902       .  S
O819        C824   1.264       .  A
V821        V822   2.089       .  T
C823       C1192   1.482       .  S
C824        C992   1.462       .  S
C825        C839   1.467       .  S
C826        C840   1.461       .  S
O827        V835   1.907       .  S
O827        C837   1.266       .  A
O828        V835   1.903       .  S
O828        C838   1.264       .  A
O829        V835   1.899       .  S
O829        C839   1.264       .  A
O830        V835   1.899       .  S
O830        C840   1.264       .  A
O831        V836   1.894       .  S
O831        C840   1.263       .  A
O832        V836   1.902       .  S
O832        C839   1.264       .  A
O833        V836   1.906       .  S
O833        C838   1.264       .  A
O834        V836   1.905       .  S
O834        C837   1.266       .  A
V835        V836   2.088       .  T
C837       C1178   1.489       .  S
C838       C1006   1.466       .  S
O842        V849   1.900       .  S
O842       C2196   1.263       .  A
O843        V849   1.898       .  S
O843        C853   1.264       .  A
O844        C854   1.263       .  A
O845       C2198   1.263       .  A
O846        V850   1.898       .  S
O846       C2197   1.263       .  A
O848        V850   1.903       .  S
O848       C2195   1.266       .  A
V849       V2194   2.088       .  T
V850       V2193   2.088   1_455  T
C851       O2192   1.266       .  A
C851       C1223   1.481       .  S
C852       O2186   1.263   1_455  A
C852       C1076   1.465       .  S
C853       O2190   1.262       .  A
C853        C867   1.462       .  S
C854       O2189   1.263       .  A
C854        C868   1.461       .  S
O855        V863   1.905       .  S
O855       C2209   1.266       .  A
O856        V863   1.907       .  S
O856       C2210   1.265       .  A
O857        V863   1.899       .  S
O857       C2211   1.264       .  A
O858        V863   1.898       .  S
O858       C2212   1.264       .  A
O859        V864   1.896       .  S
O859        C868   1.263       .  A
O860        V864   1.894       .  S
O860        C867   1.262       .  A
O861        V864   1.907       .  S
O861        C866   1.266       .  A
O862        V864   1.907       .  S
O862        C865   1.266       .  A
V863       V2208   2.088   1_455  T
V864       V2207   2.088       .  T
C865       O2199   1.266       .  A
C865       C1209   1.489       .  S
C866       O2200   1.266       .  A
C866       C2434   1.477       .  S
C867       O2201   1.264       .  A
C868       O2202   1.263       .  A
O869        V877   1.896       .  S
O869        C879   1.264       .  A
O871        C881   1.263       .  A
O872        V877   1.898       .  S
O872        C882   1.263       .  A
O873        V878   1.896       .  S
O873        C882   1.263       .  A
O874        C881   1.263       .  A
O875        V878   1.916       .  S
O875        C880   1.268       .  A
V877        V878   2.088       .  T
C879       C1195   1.492       .  S
C880       C1104   1.476       .  S
C881        C896   1.462       .  S
C882        C895   1.461       .  S
O883        V891   1.901       .  S
O883        C893   1.265       .  A
O884        V891   1.900       .  S
O884        C894   1.265       .  A
O885        V891   1.898       .  S
O885        C895   1.264       .  A
O886        V891   1.896       .  S
O886        C896   1.263       .  A
O887        V892   1.898       .  S
O887        C896   1.263       .  A
O888        V892   1.895       .  S
O888        C895   1.263       .  A
O889        V892   1.914       .  S
O889        C894   1.267       .  A
O890        V892   1.912       .  S
O890        C893   1.267       .  A
V891        V892   2.088       .  T
C893       C1181   1.489       .  S
C894       C1118   1.476       .  S
O897        V905   1.900       .  S
O897        C907   1.264       .  A
O898       V2249   1.899       .  S
O898       C2252   1.264   1_554  A
O899       V2249   1.896       .  S
O899        C909   1.263       .  A
O900        V905   1.899   1_455  S
O900        C910   1.264       .  A
O901        V906   1.899   1_455  S
O902       V2250   1.898       .  S
O903        V906   1.891       .  S
O904       V2250   1.892       .  S
O904       C1579   1.262       .  A
V905       O2242   1.900       .  S
V905       O2243   1.896       .  S
V906       O2246   1.901       .  S
V906       O2248   1.892       .  S
C907       O1576   1.265       .  A
C907       C1167   1.476       .  S
C908       O2242   1.264   1_556  A
C908       C1020   1.469       .  S
C909        C938   1.462       .  S
C910        C937   1.462       .  S
O911        V919   1.893       .  S
O911        C921   1.264       .  A
O912        V919   1.892       .  S
O912        C922   1.263   1_554  A
O913        V919   1.897       .  S
O913        C923   1.263       .  A
O914       V2263   1.898       .  S
O914        C924   1.263       .  A
O915       V2264   1.897       .  S
O915        C924   1.263       .  A
O916        V920   1.897       .  S
O916        C923   1.263       .  A
O917        V920   1.917       .  S
O917        C922   1.267   1_554  A
O918        V920   1.914       .  S
O918        C921   1.268       .  A
V919       O2258   1.898       .  S
V919        V920   2.088       .  T
V920       O2259   1.897       .  S
C921       C1150   1.492       .  S
C922       C1034   1.473       .  S
C923        C952   1.461       .  S
C924        C951   1.462       .  S
O925        V933   1.896       .  S
O925        C935   1.263       .  A
O926        V933   1.897       .  S
O926        C936   1.264   1_554  A
O927        V933   1.898       .  S
O927        C937   1.263       .  A
O928        V933   1.898       .  S
O928        C938   1.264       .  A
O929        V934   1.895       .  S
O930        V934   1.897       .  S
O931        V934   1.896       .  S
O932        V934   1.897       .  S
C935       C1139   1.479       .  S
C936       C1048   1.469       .  S
O939        V947   1.893       .  S
O939        C949   1.264       .  A
O940        V947   1.893       .  S
O940        C950   1.263   1_554  A
O941        V947   1.897       .  S
O941        C951   1.263       .  A
O942        V947   1.898       .  S
O942        C952   1.264       .  A
O943        V948   1.896       .  S
O943        C952   1.263       .  A
O944        V948   1.897       .  S
O944        C951   1.263       .  A
O945        V948   1.915       .  S
O945        C950   1.267   1_554  A
O946        V948   1.914       .  S
O946        C949   1.268       .  A
V947        V948   2.088       .  T
C949       C1122   1.489       .  S
C950       C1062   1.472       .  S
O953       V2305   1.900       .  S
O953       C2307   1.264       .  A
O954        V961   1.899       .  S
O954        C964   1.263       .  A
O955        V961   1.899       .  S
O955        C965   1.264       .  A
O956       V2305   1.896       .  S
O956        C966   1.263       .  A
O957       V2306   1.895       .  S
O958        V962   1.900   1_455  S
O959       V2306   1.909       .  S
O959       C1636   1.265   1_565  A
O960        V962   1.906       .  S
V961       O2297   1.900   1_455  S
V961       O2300   1.897   1_455  S
V962       O2301   1.900       .  S
V962       O2303   1.907       .  S
C963       O2297   1.264       .  A
C963       C1164   1.477       .  S
C964       O1631   1.264       .  A
C964       C2140   1.459       .  S
C965        C994   1.464       .  S
C966        C993   1.459       .  S
O967        V975   1.902       .  S
O967        C977   1.266       .  A
O968       V2319   1.906       .  S
O968       C2322   1.264       .  A
O969       V2319   1.897       .  S
O969        C979   1.263       .  A
O970        V975   1.895       .  S
O970        C980   1.263       .  A
O971        V976   1.896       .  S
O971        C980   1.263       .  A
O972       V2320   1.900       .  S
O972        C979   1.264       .  A
O973        V976   1.904       .  S
O973        C978   1.265       .  A
O974       V2320   1.906       .  S
O974       C2321   1.266       .  A
V975       O2312   1.908       .  S
V975       O2313   1.897       .  S
V975        V976   2.088       .  T
V976       O2316   1.895       .  S
V976       O2318   1.905       .  S
C977       O2318   1.266       .  A
C977       C1153   1.492       .  S
C978       O2312   1.264       .  A
C979       C1008   1.463       .  S
C980       C1007   1.460       .  S
O981        V989   1.901       .  S
O981        C991   1.265       .  A
O982        V989   1.903       .  S
O982        C992   1.264       .  A
O983        V989   1.895       .  S
O983        C993   1.263       .  A
O984        V989   1.896       .  S
O984        C994   1.263       .  A
O985        V990   1.901       .  S
O986        V990   1.897       .  S
O987        V990   1.905       .  S
O988        V990   1.900       .  S
C991       C1136   1.478       .  S
O995       V1003   1.902       .  S
O995       C1005   1.266       .  A
O996       V1003   1.906       .  S
O996       C1006   1.264       .  A
O997       V1003   1.896       .  S
O997       C1007   1.263       .  A
O998       V1003   1.897       .  S
O998       C1008   1.263       .  A
O999       V1004   1.899       .  S
O999       C1008   1.264       .  A
O1000      V1004   1.896       .  S
O1000      C1007   1.263       .  A
O1001      V1004   1.903       .  S
O1001      C1006   1.265       .  A
O1002      V1004   1.906       .  S
O1002      C1005   1.266       .  A
V1003      V1004   2.088       .  T
C1005      C1125   1.490       .  S
O1009      V1017   1.896       .  S
O1010      V2361   1.894       .  S
O1010      C1692   1.264       .  A
O1011      V2361   1.895       .  S
O1012      V1017   1.898   1_455  S
O1013      V1018   1.896   1_455  S
O1013      C1022   1.263       .  A
O1014      V2362   1.898       .  S
O1014      C1021   1.263       .  A
O1015      V1018   1.899       .  S
O1015      C1020   1.264       .  A
O1016      V2362   1.897       .  S
O1016      C2363   1.264       .  A
V1017      O2354   1.894       .  S
V1017      O2355   1.895       .  S
V1018      O2358   1.899       .  S
V1018      O2360   1.898       .  S
C1019      O2360   1.264       .  A
C1019      C1276   1.480       .  S
C1020      O1682   1.265       .  A
C1021      C1050   1.462       .  S
C1022      C1049   1.462       .  S
O1023      V2375   1.915       .  S
O1023      C2377   1.268       .  A
O1024      V1031   1.918       .  S
O1024      C1034   1.268       .  A
O1025      V1031   1.895       .  S
O1025      C1035   1.262       .  A
O1026      V2375   1.897       .  S
O1026      C1036   1.263       .  A
O1027      V2376   1.897       .  S
O1027      C1036   1.264       .  A
O1028      V1032   1.899       .  S
O1028      C1035   1.264       .  A
O1029      V2376   1.891       .  S
O1029      C2378   1.263       .  A
O1030      V1032   1.892       .  S
O1030      C1033   1.263       .  A
V1031      O2367   1.916       .  S
V1031      O2370   1.898       .  S
V1031      V1032   2.088       .  T
V1032      O2371   1.896       .  S
V1032      O2373   1.891       .  S
C1033      O2367   1.268       .  A
C1033      C1265   1.485       .  S
C1034      O2373   1.263       .  A
C1035      C1064   1.462       .  S
C1036      C1063   1.461       .  S
O1037      V1045   1.892       .  S
O1038      V1045   1.894       .  S
O1039      V1045   1.898       .  S
O1040      V1045   1.896       .  S
O1041      V1046   1.899       .  S
O1041      C1050   1.264       .  A
O1042      V1046   1.897       .  S
O1042      C1049   1.263       .  A
O1043      V1046   1.897       .  S
O1043      C1048   1.263       .  A
O1044      V1046   1.899       .  S
O1044      C1047   1.264       .  A
C1047      C1248   1.482       .  S
O1051      V1059   1.912       .  S
O1051      C1061   1.267       .  A
O1052      V1059   1.914       .  S
O1052      C1062   1.266       .  A
O1053      V1059   1.898       .  S
O1053      C1063   1.264       .  A
O1054      V1059   1.897       .  S
O1054      C1064   1.263       .  A
O1055      V1060   1.898       .  S
O1055      C1064   1.263       .  A
O1056      V1060   1.895       .  S
O1056      C1063   1.263       .  A
O1057      V1060   1.894       .  S
O1057      C1062   1.263       .  A
O1058      V1060   1.895       .  S
O1058      C1061   1.264       .  A
V1059      V1060   2.088       .  T
C1061      C1237   1.483       .  S
O1066      V1073   1.903       .  S
O1066      C1076   1.264       .  A
O1067      V1073   1.896       .  S
O1067      C1077   1.263       .  A
O1068      C1078   1.264       .  A
O1069      C2422   1.263       .  A
O1070      V1074   1.896       .  S
O1070      C2421   1.263       .  A
O1071      C1748   1.267       .  A
O1072      V1074   1.905       .  S
O1072      C2419   1.266       .  A
V1073      V2418   2.089   1_455  T
V1074      V2417   2.089       .  T
C1075      O2416   1.264   1_455  A
C1075      C1335   1.477       .  S
C1076      O1743   1.263   1_455  A
C1077      O2414   1.263   1_455  A
C1077      C1092   1.461       .  S
C1078      O2413   1.263   1_455  A
C1078      C1091   1.462       .  S
O1079      V1087   1.906       .  S
O1079      C1089   1.267       .  A
O1080      V1087   1.908       .  S
O1080      C1090   1.266       .  A
O1081      V1087   1.895       .  S
O1081      C1091   1.262       .  A
O1082      V1087   1.896       .  S
O1082      C1092   1.263       .  A
O1083      V1088   1.898       .  S
O1083      C2436   1.264       .  A
O1084      V1088   1.895       .  S
O1084      C2435   1.263       .  A
O1085      V1088   1.907       .  S
O1085      C2434   1.266       .  A
O1086      V1088   1.908       .  S
O1086      C2433   1.266       .  A
V1087      V2432   2.088   1_455  T
V1088      V2431   2.088       .  T
C1089      O2430   1.264   1_455  A
C1089      C1321   1.487       .  S
C1090      O2429   1.264   1_455  A
C1090      C2210   1.472       .  S
C1091      O2428   1.264   1_455  A
C1092      O2427   1.263   1_455  A
O1093      V1101   1.912       .  S
O1093      C1103   1.268       .  A
O1095      C1105   1.264       .  A
O1096      V1101   1.899       .  S
O1096      C1106   1.264       .  A
O1097      V1102   1.897       .  S
O1097      C1106   1.263       .  A
O1098      C1105   1.263       .  A
O1099      V1102   1.901       .  S
O1099      C1104   1.265       .  A
V1101      V1102   2.088       .  T
C1103      C1307   1.494       .  S
C1105      C1120   1.462       .  S
C1106      C1119   1.463       .  S
O1107      V1115   1.913       .  S
O1107      C1117   1.269       .  A
O1108      V1115   1.914       .  S
O1108      C1118   1.267       .  A
O1109      V1115   1.897       .  S
O1109      C1119   1.263       .  A
O1110      V1115   1.897       .  S
O1110      C1120   1.263       .  A
O1111      V1116   1.899       .  S
O1111      C1120   1.264       .  A
O1112      V1116   1.898       .  S
O1112      C1119   1.264       .  A
O1113      V1116   1.899       .  S
O1113      C1118   1.264       .  A
O1114      V1116   1.900       .  S
O1114      C1117   1.264       .  A
V1115      V1116   2.087       .  T
C1117      C1293   1.495       .  S
C1121      C1122   1.405       .  A
C1121      C1126   1.404       .  A
C1121      H1128   1.084       .  S
C1122      C1123   1.414       .  A
C1123      C1124   1.412       .  A
C1123      N1130   1.438       .  S
C1124      C1125   1.408       .  A
C1124      H1129   1.084       .  S
C1125      C1126   1.414       .  A
C1126      N1127   1.439       .  S
N1127      H1131   1.046       .  S
N1127      H1132   1.045       .  S
N1130      H1133   1.043       .  S
N1130      H1134   1.046       .  S
C1135      C1136   1.403       .  A
C1135      C1140   1.398       .  A
C1135      H1142   1.084       .  S
C1137      C1138   1.398       .  A
C1137      N1144   1.433   1_545  S
C1138      H1143   1.084   1_545  S
C1139      C1140   1.415       .  A
C1140      N1141   1.433       .  S
N1141      H1145   1.044       .  S
N1141      H1146   1.046       .  S
N1144      H1147   1.046       .  S
N1144      H1148   1.044       .  S
C1149      C2494   1.406   1_655  A
C1149      C1154   1.405       .  A
C1149      H1156   1.083       .  S
C1150      C2493   1.406       .  A
C1150      C1151   1.414       .  A
C1151      C1152   1.411       .  A
C1151      N1158   1.437       .  S
C1152      C1153   1.408       .  A
C1152      H1157   1.084       .  S
C1153      C2498   1.415       .  A
C1154      C2497   1.415   1_655  A
C1154      N1155   1.438       .  S
N1155      H1159   1.046       .  S
N1155      H1160   1.045   1_655  S
N1158      H1161   1.043       .  S
N1158      H1162   1.046       .  S
C1163      C1168   1.399       .  A
C1163      H1170   1.084   1_545  S
C1164      C2509   1.415       .  A
C1165      C2508   1.415       .  A
C1165      C1166   1.400       .  A
C1165      N1172   1.433       .  S
C1166      C2511   1.403       .  A
C1166      H1171   1.084       .  S
C1167      C2510   1.403       .  A
C1168      N1169   1.433   1_545  S
N1169      H1173   1.044       .  S
N1169      H1174   1.046       .  S
N1172      H1175   1.046       .  S
N1172      H1176   1.045       .  S
C1177      C1178   1.406       .  A
C1177      C1182   1.405       .  A
C1177      H1184   1.084       .  S
C1178      C1179   1.417       .  A
C1179      C1180   1.401       .  A
C1179      N1186   1.433       .  S
C1180      C1181   1.404       .  A
C1180      H1185   1.084       .  S
C1181      C1182   1.417       .  A
C1182      N1183   1.432       .  S
N1183      H1187   1.043       .  S
N1183      H1188   1.046       .  S
N1186      H1189   1.046       .  S
N1186      H1190   1.044       .  S
C1191      C1192   1.403       .  A
C1191      C1196   1.402       .  A
C1191      H1198   1.084       .  S
C1193      C1194   1.413       .  A
C1193      N1200   1.438       .  S
C1194      C1195   1.407       .  A
C1194      H1199   1.084       .  S
C1196      N1197   1.439       .  S
N1197      H1201   1.046       .  S
N1197      H1202   1.046       .  S
N1200      H1203   1.046       .  S
N1200      H1204   1.046       .  S
C1205      C2550   1.406       .  A
C1205      C1210   1.408       .  A
C1205      H1212   1.083       .  S
C1206      C2549   1.406       .  A
C1206      C1207   1.414       .  A
C1207      C1208   1.410       .  A
C1207      N1214   1.438       .  S
C1208      C1209   1.405       .  A
C1208      H1213   1.084       .  S
C1209      C2554   1.414       .  A
C1210      C2553   1.415       .  A
C1210      N1211   1.438       .  S
N1211      H1215   1.045       .  S
N1211      H1216   1.046       .  S
N1214      H1217   1.045       .  S
N1214      H1218   1.046       .  S
C1219      C1224   1.400       .  A
C1219      H1226   1.084       .  S
C1220      C2565   1.416       .  A
C1221      C2564   1.419       .  A
C1221      C1222   1.400       .  A
C1221      N1228   1.433       .  S
C1222      C2567   1.407       .  A
C1222      H1227   1.084       .  S
C1223      C2566   1.404       .  A
C1224      N1225   1.433       .  S
N1225      H1229   1.046       .  S
N1225      H1230   1.044       .  S
N1228      H1231   1.045       .  S
N1228      H1232   1.045       .  S
C1233      C1234   1.408       .  A
C1233      C1238   1.405       .  A
C1233      H1240   1.084       .  S
C1234      C1235   1.415       .  A
C1235      C1236   1.398       .  A
C1235      N1242   1.433       .  S
C1236      C1237   1.404       .  A
C1236      H1241   1.084       .  S
C1237      C1238   1.415       .  A
C1238      N1239   1.433       .  S
N1239      H1243   1.044       .  S
N1239      H1244   1.046       .  S
N1242      H1245   1.046       .  S
N1242      H1246   1.044       .  S
C1247      C1248   1.404       .  A
C1247      C1252   1.407       .  A
C1247      H1254   1.084       .  S
C1249      C1250   1.404       .  A
C1249      N1256   1.439   1_545  S
C1250      H1255   1.084       .  S
C1251      C1252   1.414       .  A
C1252      N1253   1.438       .  S
N1253      H1257   1.046       .  S
N1253      H1258   1.044       .  S
N1256      H1259   1.045       .  S
N1256      H1260   1.045       .  S
C1261      C2606   1.403       .  A
C1261      C1266   1.403       .  A
C1261      H1268   1.084       .  S
C1262      C2605   1.403       .  A
C1262      C1263   1.413       .  A
C1263      C1264   1.412       .  A
C1263      N1270   1.438       .  S
C1264      C1265   1.406       .  A
C1264      H1269   1.084       .  S
C1265      C2610   1.413       .  A
C1266      C2609   1.414       .  A
C1266      N1267   1.439       .  S
N1267      H1271   1.046       .  S
N1267      H1272   1.046       .  S
N1270      H1273   1.046       .  S
N1270      H1274   1.046       .  S
C1275      C1948   1.403       .  A
C1275      C1280   1.405       .  A
C1275      H1282   1.084       .  S
C1276      C1947   1.403       .  A
C1276      C1277   1.413   1_655  A
C1277      C1278   1.406       .  A
C1277      N1284   1.438       .  S
C1278      C1279   1.403   1_455  A
C1278      H1283   1.084       .  S
C1279      C1952   1.415       .  A
C1280      C1951   1.412       .  A
C1280      N1281   1.438   1_545  S
N1281      H1285   1.045       .  S
N1281      H1286   1.046   1_565  S
N1284      H1287   1.046       .  S
N1284      H1288   1.046       .  S
C1289      C1290   1.405       .  A
C1289      C1294   1.405       .  A
C1289      H1296   1.083       .  S
C1290      C1291   1.419       .  A
C1291      C1292   1.412       .  A
C1291      N1298   1.436       .  S
C1292      C1293   1.405       .  A
C1292      H1297   1.084       .  S
C1293      C1294   1.414       .  A
C1294      N1295   1.432       .  S
N1295      H1299   1.046       .  S
N1295      H1300   1.046       .  S
N1298      H1301   1.043       .  S
N1298      H1302   1.046       .  S
C1303      C1308   1.401       .  A
C1303      H1310   1.084       .  S
C1304      C1305   1.419       .  A
C1305      C1306   1.413       .  A
C1305      N1312   1.437       .  S
C1306      C1307   1.406       .  A
C1306      H1311   1.084       .  S
C1308      N1309   1.431       .  S
N1309      H1313   1.046       .  S
N1309      H1314   1.045       .  S
N1312      H1315   1.043       .  S
N1312      H1316   1.046       .  S
C1317      C2662   1.405       .  A
C1317      C1322   1.411       .  A
C1317      H1324   1.084       .  S
C1318      C2661   1.405   1_455  A
C1318      C1319   1.414       .  A
C1319      C1320   1.407       .  A
C1319      N1326   1.438       .  S
C1320      C1321   1.404       .  A
C1320      H1325   1.083       .  S
C1321      C2666   1.415   1_455  A
C1322      C2665   1.414       .  A
C1322      N1323   1.438       .  S
N1323      H1327   1.046       .  S
N1323      H1328   1.045       .  S
N1326      H1329   1.046       .  S
N1326      H1330   1.045       .  S
C1331      C1332   1.404   1_455  A
C1331      C1336   1.405       .  A
C1331      H1338   1.084       .  S
C1332      C2005   1.412       .  A
C1333      C2004   1.414       .  A
C1333      C1334   1.409       .  A
C1333      N1340   1.438       .  S
C1334      C2007   1.402       .  A
C1334      H1339   1.084       .  S
C1335      C2006   1.403   1_455  A
C1335      C1336   1.411       .  A
C1336      N1337   1.438       .  S
N1337      H1341   1.046       .  S
N1337      H1342   1.046       .  S
N1340      H1343   1.044       .  S
N1340      H1344   1.045       .  S
O1345      V2025   1.899       .  S
O1346      V1353   1.903   1_545  S
O1347      V1353   1.898   1_545  S
O1347      C1357   1.264       .  A
O1348      V2025   1.896       .  S
O1348      C1358   1.264       .  A
O1349      V2026   1.895       .  S
O1350      V1354   1.898       .  S
O1351      V2026   1.905       .  S
O1351      C1356   1.264       .  A
O1352      V1354   1.911       .  S
O1352      C1355   1.267       .  A
V1353      O2017   1.904       .  S
V1353      O2020   1.901       .  S
V1354      O2021   1.900   1_545  S
V1354      O2023   1.908       .  S
C1355      C2004   1.483       .  S
C1356      C1412   1.464       .  S
C1357      C1371   1.462       .  S
C1358      C1372   1.461   1_655  S
O1359      V1367   1.899       .  S
O1359      C1369   1.264       .  A
O1360      V1367   1.901       .  S
O1361      V1367   1.896       .  S
O1362      V1367   1.898       .  S
O1363      V1368   1.893       .  S
O1363      C1372   1.262   1_655  A
O1364      V1368   1.895       .  S
O1364      C1371   1.262       .  A
O1365      V1368   1.903       .  S
O1365      C1370   1.264       .  A
O1366      V1368   1.902       .  S
C1369      C1990   1.476       .  S
C1370      C1426   1.456       .  S
O1373      V1381   1.903       .  S
O1373      C1383   1.265       .  A
O1374      V2053   1.905       .  S
O1374      C2056   1.264       .  A
O1375      V2053   1.897       .  S
O1375      C1385   1.263       .  A
O1376      V1381   1.897       .  S
O1376      C1386   1.264       .  A
O1377      V1382   1.894       .  S
O1377      C1386   1.262       .  A
O1378      V2054   1.897       .  S
O1378      C1385   1.263       .  A
O1379      V1382   1.907       .  S
O1379      C1384   1.264       .  A
O1380      V2054   1.904       .  S
O1380      C2055   1.266       .  A
V1381      O2046   1.903       .  S
V1381      O2047   1.899       .  S
V1381      V1382   2.089       .  T
V1382      O2050   1.897       .  S
V1382      O2052   1.901       .  S
C1383      O2052   1.265       .  A
C1383      C1976   1.484       .  S
C1384      O2046   1.264       .  A
C1384      C2112   1.466       .  S
C1385      C1399   1.461       .  S
C1386      C1400   1.459       .  S
O1387      V1395   1.894       .  S
O1387      C1397   1.264       .  A
O1388      V1395   1.898       .  S
O1388      C1398   1.262       .  A
O1389      V1395   1.898       .  S
O1389      C1399   1.264       .  A
O1390      V1395   1.897       .  S
O1390      C1400   1.264       .  A
O1391      V1396   1.895       .  S
O1391      C1400   1.262       .  A
O1392      V1396   1.895       .  S
O1392      C1399   1.263       .  A
O1393      V1396   1.903       .  S
O1393      C1398   1.265       .  A
O1394      V1396   1.904       .  S
O1394      C1397   1.266       .  A
V1395      V1396   2.089       .  T
C1397      C1962   1.486       .  S
C1398      C1454   1.459       .  S
O1402      V1409   1.900       .  S
O1402      C1412   1.263       .  A
O1403      V1409   1.895       .  S
O1403      C1413   1.263       .  A
O1404      C1414   1.265       .  A
O1405      C2086   1.263       .  A
O1406      V1410   1.897       .  S
O1406      C2085   1.263       .  A
O1408      V1410   1.907       .  S
O1408      C1411   1.265       .  A
V1409      V2082   2.089       .  T
V1410      V2081   2.089   1_545  T
C1411      C1951   1.482       .  S
C1413      O2078   1.263       .  A
C1413      C2114   1.461       .  S
C1414      O2077   1.262       .  A
C1414      C2113   1.463       .  S
O1415      V1423   1.899       .  S
O1415      C1425   1.265       .  A
O1417      C1427   1.263       .  A
O1418      V1423   1.898       .  S
O1418      C1428   1.264       .  A
O1419      V1424   1.897       .  S
O1419      C1428   1.263       .  A
O1420      C1427   1.264       .  A
O1421      V1424   1.898       .  S
O1421      C1426   1.263       .  A
V1423      V1424   2.089       .  T
C1425      C1934   1.481       .  S
C1427      C1456   1.461       .  S
C1428      C1455   1.462       .  S
O1429      V1437   1.908       .  S
O1429      C2111   1.266       .  A
O1430      V1437   1.907       .  S
O1430      C2112   1.266       .  A
O1431      V1437   1.894       .  S
O1431      C2113   1.262       .  A
O1432      V1437   1.892       .  S
O1432      C2114   1.262       .  A
O1433      V1438   1.898       .  S
O1433      C1442   1.264       .  A
O1434      V1438   1.900       .  S
O1434      C1441   1.265       .  A
O1435      V1438   1.902       .  S
O1435      C1440   1.264       .  A
O1436      V1438   1.904       .  S
O1436      C1439   1.264       .  A
V1437      V2110   2.089       .  T
V1438      V2109   2.088   1_545  T
C1439      O2101   1.267       .  A
C1439      C1923   1.486       .  S
C1440      O2102   1.265   1_545  A
C1440      C2056   1.466       .  S
C1441      O2103   1.263   1_545  A
C1441      C2086   1.463       .  S
C1442      O2104   1.263   1_545  A
C1442      C2085   1.460       .  S
O1443      V1451   1.899       .  S
O1443      C1453   1.265       .  A
O1444      V1451   1.902       .  S
O1444      C1454   1.264       .  A
O1445      V1451   1.896       .  S
O1445      C1455   1.263       .  A
O1446      V1451   1.896       .  S
O1446      C1456   1.263       .  A
O1447      V1452   1.897       .  S
O1447      C1456   1.263       .  A
O1448      V1452   1.899       .  S
O1448      C1455   1.264       .  A
O1449      V1452   1.899       .  S
O1449      C1454   1.263       .  A
O1450      V1452   1.899       .  S
O1450      C1453   1.263       .  A
V1451      V1452   2.089       .  T
C1453      C1906   1.480       .  S
O1457      V1465   1.904       .  S
O1457      C1467   1.267   1_655  A
O1458      V2137   1.899       .  S
O1458      C2140   1.263   1_655  A
O1459      V2137   1.895       .  S
O1459      C1469   1.262   1_655  A
O1460      V1465   1.899   1_545  S
O1460      C1470   1.263   1_655  A
O1461      V1466   1.897   1_545  S
O1462      V2138   1.894       .  S
O1463      V1466   1.906   1_545  S
O1464      V2138   1.900       .  S
V1465      O2130   1.904       .  S
V1465      O2131   1.901       .  S
V1466      O2134   1.900       .  S
V1466      O2136   1.908       .  S
C1467      C1892   1.497       .  S
C1468      O2130   1.263   1_445  A
C1469      C1483   1.461       .  S
C1470      C1484   1.460       .  S
O1471      V1479   1.899       .  S
O1472      V1479   1.902       .  S
O1473      V1479   1.892       .  S
O1474      V1479   1.896       .  S
O1475      V1480   1.899       .  S
O1475      C1484   1.264   1_655  A
O1476      V1480   1.898       .  S
O1476      C1483   1.264   1_655  A
O1477      V1480   1.899       .  S
O1477      C1482   1.263   1_655  A
O1478      V1480   1.897       .  S
O1478      C1481   1.264   1_655  A
C1481      C1878   1.489       .  S
C1482      C1650   1.459       .  S
O1485      V1493   1.904       .  S
O1485      C1495   1.266       .  A
O1486      V2165   1.902       .  S
O1486      C2168   1.264       .  A
O1487      V2165   1.894       .  S
O1487      C1497   1.263       .  A
O1488      V1493   1.899       .  S
O1488      C1498   1.264       .  A
O1489      V1494   1.895       .  S
O1489      C1498   1.262       .  A
O1490      V2166   1.896       .  S
O1490      C1497   1.263       .  A
O1491      V1494   1.906       .  S
O1491      C1496   1.264       .  A
O1492      V2166   1.903       .  S
O1492      C2167   1.266       .  A
V1493      O2158   1.900       .  S
V1493      O2159   1.905   1_545  S
V1493      V1494   2.088       .  T
V1494      O2162   1.898   1_545  S
V1494      O2164   1.906   1_545  S
C1495      O2164   1.267   1_545  A
C1495      C1864   1.490       .  S
C1496      O2158   1.263       .  A
C1496      C1664   1.464       .  S
C1497      C1511   1.459       .  S
C1498      C1512   1.462       .  S
O1499      V1507   1.900       .  S
O1499      C1509   1.265       .  A
O1500      V1507   1.904       .  S
O1500      C1510   1.263       .  A
O1501      V1507   1.897       .  S
O1501      C1511   1.263       .  A
O1502      V1507   1.899       .  S
O1502      C1512   1.264       .  A
O1503      V1508   1.895       .  S
O1503      C1512   1.262       .  A
O1504      V1508   1.893       .  S
O1504      C1511   1.262       .  A
O1505      V1508   1.903       .  S
O1505      C1510   1.264       .  A
O1506      V1508   1.901       .  S
O1506      C1509   1.264       .  A
V1507      V1508   2.089       .  T
C1509      C1850   1.484       .  S
C1510      C1678   1.463       .  S
O1513      V2193   1.892       .  S
O1513      C2195   1.262   1_655  A
O1514      V1521   1.900       .  S
O1515      V1521   1.897   1_545  S
O1515      C1525   1.263   1_655  A
O1516      V2193   1.898       .  S
O1516      C1526   1.263   1_655  A
O1517      V2194   1.894       .  S
O1518      V1522   1.900       .  S
O1519      V2194   1.904       .  S
O1519      C2196   1.265       .  A
O1520      V1522   1.910       .  S
V1521      O2185   1.899       .  S
V1521      O2188   1.898       .  S
V1522      O2189   1.898   1_545  S
V1522      O2191   1.908       .  S
C1523      O2185   1.264   1_455  A
C1523      C1895   1.497       .  S
C1524      O2191   1.266       .  A
C1524      C1748   1.474       .  S
C1525      C1539   1.460       .  S
C1526      C1540   1.463       .  S
O1527      V1535   1.902       .  S
O1528      V1535   1.903       .  S
O1529      V1535   1.899       .  S
O1530      V1535   1.895       .  S
O1531      V1536   1.899       .  S
O1531      C1540   1.264   1_655  A
O1532      V1536   1.896       .  S
O1532      C1539   1.263   1_655  A
O1533      V1536   1.895       .  S
O1533      C1538   1.263   1_655  A
O1534      V1536   1.896       .  S
O1534      C1537   1.265   1_655  A
C1537      C1881   1.488       .  S
O1541      V1549   1.908       .  S
O1541      C1551   1.267       .  A
O1542      V2221   1.912       .  S
O1542      C2224   1.267       .  A
O1543      V2221   1.896       .  S
O1543      C1553   1.263       .  A
O1544      V1549   1.898       .  S
O1544      C1554   1.264       .  A
O1545      V1550   1.897       .  S
O1545      C1554   1.263       .  A
O1546      V2222   1.900       .  S
O1546      C1553   1.264       .  A
O1547      V1550   1.897       .  S
O1547      C1552   1.264       .  A
O1548      V2222   1.899       .  S
O1548      C2223   1.265       .  A
V1549      O2214   1.910       .  S
V1549      O2215   1.897       .  S
V1549      V1550   2.088       .  T
V1550      O2218   1.896       .  S
V1550      O2220   1.897       .  S
C1551      O2220   1.264       .  A
C1551      C1867   1.486       .  S
C1552      O2214   1.266       .  A
C1552      C1776   1.471       .  S
C1553      C1568   1.463       .  S
C1554      C1567   1.462       .  S
O1555      V1563   1.907       .  S
O1555      C1565   1.267       .  A
O1556      V1563   1.909       .  S
O1556      C1566   1.266       .  A
O1557      V1563   1.896       .  S
O1557      C1567   1.263       .  A
O1558      V1563   1.894       .  S
O1558      C1568   1.263       .  A
O1559      V1564   1.901       .  S
O1559      C1568   1.264       .  A
O1560      V1564   1.899       .  S
O1560      C1567   1.264       .  A
O1561      V1564   1.893       .  S
O1561      C1566   1.263       .  A
O1562      V1564   1.894       .  S
O1562      C1565   1.262       .  A
V1563      V1564   2.088       .  T
C1565      C1853   1.485       .  S
C1566      C1790   1.468       .  S
O1569      V1577   1.914       .  S
O1569      C1579   1.268       .  A
O1571      C1581   1.262       .  A
O1572      V1577   1.898       .  S
O1572      C1582   1.263       .  A
O1573      V1578   1.896       .  S
O1573      C2254   1.263       .  A
O1574      C2253   1.264       .  A
O1575      V1578   1.904       .  S
O1575      C2252   1.265   1_554  A
V1577      V2250   2.088       .  T
V1578      V2249   2.089       .  T
C1579      C1839   1.486       .  S
C1580      O2247   1.262   1_556  A
C1580      C1692   1.472       .  S
C1581      O2246   1.265       .  A
C1581      C1610   1.462       .  S
C1582      O2245   1.263       .  A
C1582      C1609   1.462       .  S
O1583      V1591   1.906       .  S
O1583      C1593   1.267       .  A
O1584      V1591   1.905       .  S
O1584      C1594   1.266   1_554  A
O1585      V1591   1.895   1_655  S
O1585      C1595   1.262       .  A
O1586      C1596   1.263       .  A
O1587      C1596   1.263       .  A
O1588      V1592   1.898   1_655  S
O1588      C1595   1.264       .  A
O1589      V1592   1.897       .  S
O1589      C1594   1.263   1_554  A
O1590      V1592   1.896       .  S
O1590      C1593   1.263       .  A
V1591      V1592   2.088       .  T
C1593      C1822   1.486       .  S
C1594      C1706   1.467       .  S
C1595      C1624   1.461       .  S
C1596      C1623   1.462       .  S
O1597      V1605   1.910       .  S
O1597      C1607   1.266       .  A
O1598      V1605   1.912       .  S
O1598      C1608   1.266   1_554  A
O1599      V1605   1.898       .  S
O1599      C1609   1.263       .  A
O1600      V1605   1.898       .  S
O1600      C1610   1.264       .  A
O1601      V1606   1.896       .  S
O1601      C2282   1.263       .  A
O1602      V1606   1.899       .  S
O1602      C2281   1.264       .  A
O1603      V1606   1.906       .  S
O1603      C2280   1.265   1_554  A
O1604      V1606   1.906       .  S
O1604      C2279   1.266       .  A
V1605      V2278   2.088       .  T
V1606      V2277   2.089       .  T
C1607      O2276   1.264       .  A
C1607      C1811   1.486       .  S
C1608      O2275   1.263   1_556  A
C1608      C1720   1.470       .  S
C1609      O2274   1.263       .  A
C1610      O2273   1.262       .  A
O1611      V1619   1.905       .  S
O1611      C1621   1.266       .  A
O1612      V1619   1.907       .  S
O1612      C1622   1.265   1_554  A
O1613      V1619   1.897       .  S
O1613      C1623   1.263       .  A
O1614      V1619   1.898       .  S
O1614      C1624   1.264       .  A
O1615      V1620   1.895       .  S
O1615      C1624   1.263       .  A
O1616      V1620   1.897       .  S
O1616      C1623   1.263       .  A
O1617      V1620   1.896       .  S
O1617      C1622   1.264   1_554  A
O1618      V1620   1.898       .  S
O1618      C1621   1.263       .  A
V1619      V1620   2.089       .  T
C1621      C1794   1.483       .  S
C1622      C1734   1.467       .  S
O1626      V1633   1.902       .  S
O1626      C1636   1.264       .  A
O1627      V1633   1.900       .  S
O1627      C1637   1.264       .  A
O1628      C1638   1.263       .  A
O1629      C2310   1.264       .  A
O1630      V1634   1.894       .  S
O1630      C2309   1.262       .  A
O1632      V1634   1.903       .  S
O1632      C2307   1.265       .  A
V1633      V2306   2.088   1_545  T
V1634      V2305   2.089       .  T
C1635      O2304   1.267   1_545  A
C1635      C1836   1.487       .  S
C1637      O2302   1.262   1_545  A
C1637      C1666   1.461       .  S
C1638      O2301   1.264   1_545  A
C1638      C1665   1.463       .  S
O1639      V1647   1.903       .  S
O1639      C1649   1.264       .  A
O1641      C1651   1.264       .  A
O1642      V1647   1.898   1_655  S
O1642      C1652   1.263       .  A
O1643      V1648   1.899   1_655  S
O1643      C1652   1.264       .  A
O1644      C1651   1.263       .  A
O1645      V1648   1.900       .  S
O1645      C1650   1.263       .  A
V1647      V1648   2.089       .  T
C1649      C1825   1.484       .  S
C1651      C1680   1.461       .  S
C1652      C1679   1.464       .  S
O1653      V1661   1.906       .  S
O1653      C1663   1.266       .  A
O1654      V1661   1.902       .  S
O1654      C1664   1.264       .  A
O1655      V1661   1.899       .  S
O1655      C1665   1.264       .  A
O1656      V1661   1.898       .  S
O1656      C1666   1.263       .  A
O1657      V1662   1.897       .  S
O1657      C2338   1.264       .  A
O1658      V1662   1.897       .  S
O1658      C2337   1.263       .  A
O1659      V1662   1.904       .  S
O1659      C2336   1.265       .  A
O1660      V1662   1.904       .  S
O1660      C2335   1.265       .  A
V1661      V2334   2.088   1_545  T
V1662      V2333   2.089       .  T
C1663      O2332   1.265   1_545  A
C1663      C1808   1.487       .  S
C1664      O2331   1.263   1_545  A
C1665      O2330   1.263   1_545  A
C1666      O2329   1.263   1_545  A
O1667      V1675   1.902       .  S
O1667      C1677   1.265       .  A
O1668      V1675   1.901       .  S
O1668      C1678   1.264       .  A
O1669      V1675   1.900       .  S
O1669      C1679   1.264       .  A
O1670      V1675   1.897       .  S
O1670      C1680   1.263       .  A
O1671      V1676   1.896       .  S
O1671      C1680   1.263       .  A
O1672      V1676   1.897       .  S
O1672      C1679   1.263       .  A
O1673      V1676   1.904       .  S
O1673      C1678   1.264       .  A
O1674      V1676   1.904       .  S
O1674      C1677   1.266       .  A
V1675      V1676   2.089       .  T
C1677      C1797   1.483       .  S
O1681      V1689   1.906       .  S
O1681      C2363   1.266       .  A
O1683      C2365   1.263       .  A
O1684      V1689   1.899       .  S
O1684      C2366   1.264       .  A
O1685      V1690   1.895       .  S
O1685      C1694   1.263       .  A
O1686      C1693   1.264       .  A
O1687      V1690   1.914       .  S
O1687      C1692   1.266       .  A
V1689      V2362   2.089       .  T
V1690      V2361   2.088       .  T
C1691      O2353   1.263       .  A
C1691      C1948   1.482       .  S
C1693      O2355   1.262       .  A
C1693      C1722   1.461       .  S
C1694      O2356   1.263       .  A
C1694      C1721   1.462       .  S
O1696      V1703   1.900       .  S
O1696      C1706   1.265       .  A
O1697      V1703   1.892   1_655  S
O1697      C1707   1.262       .  A
O1698      C1708   1.263       .  A
O1699      C1708   1.264       .  A
O1700      V1704   1.901   1_655  S
O1700      C1707   1.265       .  A
O1702      V1704   1.901       .  S
O1702      C1705   1.264       .  A
V1703      V1704   2.089       .  T
C1705      C1937   1.481       .  S
C1707      C1736   1.461       .  S
C1708      C1735   1.463       .  S
O1709      V1717   1.906       .  S
O1709      C2391   1.266       .  A
O1710      V1717   1.907       .  S
O1710      C2392   1.265       .  A
O1711      V1717   1.899       .  S
O1711      C2393   1.263       .  A
O1712      V1717   1.895       .  S
O1712      C2394   1.263       .  A
O1713      V1718   1.895       .  S
O1713      C1722   1.262       .  A
O1714      V1718   1.894       .  S
O1714      C1721   1.262       .  A
O1715      V1718   1.916       .  S
O1715      C1720   1.267       .  A
O1716      V1718   1.914       .  S
O1716      C1719   1.268       .  A
V1717      V2390   2.088       .  T
V1718      V2389   2.088       .  T
C1719      O2381   1.261       .  A
C1719      C1920   1.484       .  S
C1720      O2382   1.262       .  A
C1721      O2383   1.264       .  A
C1722      O2384   1.264       .  A
O1723      V1731   1.895       .  S
O1723      C1733   1.262       .  A
O1724      V1731   1.893       .  S
O1724      C1734   1.263       .  A
O1725      V1731   1.901       .  S
O1725      C1735   1.265       .  A
O1726      V1731   1.898       .  S
O1726      C1736   1.264       .  A
O1727      V1732   1.897       .  S
O1727      C1736   1.262       .  A
O1728      V1732   1.894       .  S
O1728      C1735   1.262       .  A
O1729      V1732   1.908       .  S
O1729      C1734   1.266       .  A
O1730      V1732   1.905       .  S
O1730      C1733   1.267       .  A
V1731      V1732   2.088       .  T
C1733      C1909   1.481       .  S
O1737      V2417   1.897       .  S
O1737      C2419   1.263       .  A
O1738      V1745   1.902       .  S
O1738      C1748   1.264       .  A
O1739      V1745   1.900       .  S
O1739      C1749   1.265       .  A
O1740      V2417   1.896       .  S
O1740      C1750   1.264       .  A
O1741      V2418   1.895       .  S
O1742      V1746   1.900   1_545  S
O1743      V2418   1.895       .  S
O1744      V1746   1.906       .  S
V1745      O2409   1.901       .  S
V1745      O2412   1.899   1_545  S
V1746      O2413   1.896       .  S
V1746      O2415   1.904   1_565  S
C1747      O2409   1.264       .  A
C1747      C2007   1.483       .  S
C1749      C1764   1.463       .  S
C1750      C1763   1.462       .  S
O1751      V1759   1.900       .  S
O1751      C1761   1.265       .  A
O1752      V1759   1.903       .  S
O1752      C1762   1.265       .  A
O1753      V1759   1.895       .  S
O1753      C1763   1.263       .  A
O1754      V1759   1.893       .  S
O1754      C1764   1.262       .  A
O1755      V1760   1.899       .  S
O1756      V1760   1.896       .  S
O1757      V1760   1.895       .  S
O1758      V1760   1.894       .  S
C1761      C1993   1.475       .  S
O1765      V1773   1.897       .  S
O1765      C1775   1.265       .  A
O1766      V2445   1.899       .  S
O1766      C2448   1.264       .  A
O1767      V2445   1.900       .  S
O1767      C1777   1.264       .  A
O1768      V1773   1.894       .  S
O1768      C1778   1.262       .  A
O1769      V1774   1.901       .  S
O1769      C1778   1.265       .  A
O1770      V2446   1.894       .  S
O1770      C1777   1.263       .  A
O1771      V1774   1.910       .  S
O1771      C1776   1.266       .  A
O1772      V2446   1.912       .  S
O1772      C2447   1.267       .  A
V1773      O2438   1.897       .  S
V1773      O2439   1.896       .  S
V1773      V1774   2.088       .  T
V1774      O2442   1.901       .  S
V1774      O2444   1.909       .  S
C1775      O2444   1.266       .  A
C1775      C1979   1.484       .  S
C1776      O2438   1.264       .  A
C1777      C1792   1.462       .  S
C1778      C1791   1.462       .  S
O1779      V1787   1.893       .  S
O1779      C1789   1.264       .  A
O1780      V1787   1.892       .  S
O1780      C1790   1.263       .  A
O1781      V1787   1.898       .  S
O1781      C1791   1.264       .  A
O1782      V1787   1.899       .  S
O1782      C1792   1.264       .  A
O1783      V1788   1.895       .  S
O1783      C1792   1.263       .  A
O1784      V1788   1.896       .  S
O1784      C1791   1.262       .  A
O1785      V1788   1.910       .  S
O1785      C1790   1.266       .  A
O1786      V1788   1.906       .  S
O1786      C1789   1.266       .  A
V1787      V1788   2.088       .  T
C1789      C1965   1.488       .  S
C1793      C1794   1.404       .  A
C1793      C1798   1.407       .  A
C1793      H1800   1.084       .  S
C1794      C1795   1.415       .  A
C1795      C1796   1.407       .  A
C1795      N1802   1.439       .  S
C1796      C1797   1.404       .  A
C1796      H1801   1.084       .  S
C1797      C1798   1.414       .  A
C1798      N1799   1.439       .  S
N1799      H1803   1.046       .  S
N1799      H1804   1.042       .  S
N1802      H1805   1.044       .  S
N1802      H1806   1.046       .  S
C1807      C1808   1.408       .  A
C1807      C1812   1.404       .  A
C1807      H1814   1.084       .  S
C1808      C2481   1.417       .  A
C1809      C2480   1.415       .  A
C1809      C1810   1.403       .  A
C1809      N1816   1.434       .  S
C1810      C2483   1.405       .  A
C1810      H1815   1.084       .  S
C1811      C2482   1.404       .  A
C1811      C1812   1.416       .  A
C1812      N1813   1.432       .  S
N1813      H1817   1.043       .  S
N1813      H1818   1.045       .  S
N1816      H1819   1.045       .  S
N1816      H1820   1.043       .  S
C1821      C1826   1.408       .  A
C1821      H1828   1.084       .  S
C1822      C1823   1.415       .  A
C1823      C1824   1.404       .  A
C1823      N1830   1.438       .  S
C1824      C1825   1.403       .  A
C1824      H1829   1.084       .  S
C1826      N1827   1.437       .  S
N1827      H1831   1.046       .  S
N1827      H1832   1.043       .  S
N1830      H1833   1.043       .  S
N1830      H1834   1.045       .  S
C1835      C2508   1.403       .  A
C1835      C1840   1.400       .  A
C1835      H1842   1.084       .  S
C1836      C2507   1.402       .  A
C1837      C1838   1.405       .  A
C1837      N1844   1.431       .  S
C1838      H1843   1.084       .  S
C1839      C2512   1.418       .  A
C1840      C2511   1.414       .  A
C1840      N1841   1.433       .  S
N1841      H1845   1.043       .  S
N1841      H1846   1.045       .  S
N1844      H1847   1.046       .  S
N1844      H1848   1.042       .  S
C1849      C1850   1.404       .  A
C1849      C1854   1.398       .  A
C1849      H1856   1.084       .  S
C1850      C1851   1.417       .  A
C1851      C1852   1.401       .  A
C1851      N1858   1.432       .  S
C1852      C1853   1.405       .  A
C1852      H1857   1.084       .  S
C1853      C1854   1.418       .  A
C1854      N1855   1.433       .  S
N1855      H1859   1.044       .  S
N1855      H1860   1.046       .  S
N1858      H1861   1.046       .  S
N1858      H1862   1.043       .  S
C1863      C1864   1.408       .  A
C1863      C1868   1.410       .  A
C1863      H1870   1.084       .  S
C1864      C2537   1.413   1_545  A
C1865      C2536   1.413       .  A
C1865      C1866   1.406       .  A
C1865      N1872   1.438       .  S
C1866      C1867   1.406       .  A
C1866      H1871   1.084       .  S
C1867      C2540   1.413       .  A
C1868      C2539   1.413       .  A
C1868      N1869   1.438       .  S
N1869      H1873   1.046       .  S
N1869      H1874   1.046       .  S
N1872      H1875   1.046       .  S
N1872      H1876   1.045       .  S
C1877      C1882   1.405       .  A
C1877      H1884   1.084       .  S
C1878      C1879   1.417   1_455  A
C1879      C1880   1.405       .  A
C1879      N1886   1.439       .  S
C1880      C1881   1.406   1_655  A
C1880      H1885   1.083       .  S
C1882      N1883   1.438       .  S
N1883      H1887   1.046       .  S
N1883      H1888   1.044       .  S
N1886      H1889   1.046       .  S
N1886      H1890   1.046       .  S
C1891      C2564   1.405   1_655  A
C1891      C1896   1.396       .  A
C1891      H1898   1.084       .  S
C1892      C2563   1.406   1_465  A
C1893      C1894   1.405       .  A
C1893      N1900   1.433       .  S
C1894      H1899   1.084       .  S
C1895      C2568   1.421   1_465  A
C1896      C2567   1.420   1_655  A
C1896      N1897   1.433       .  S
N1897      H1901   1.045       .  S
N1897      H1902   1.045       .  S
N1900      H1903   1.044       .  S
N1900      H1904   1.046       .  S
C1905      C1906   1.404       .  A
C1905      C1910   1.400       .  A
C1905      H1912   1.084       .  S
C1906      C1907   1.416       .  A
C1907      C1908   1.399       .  A
C1907      N1914   1.433       .  S
C1908      C1909   1.404       .  A
C1908      H1913   1.084       .  S
C1909      C1910   1.417       .  A
C1910      N1911   1.433       .  S
N1911      H1915   1.044       .  S
N1911      H1916   1.046       .  S
N1914      H1917   1.046       .  S
N1914      H1918   1.044       .  S
C1919      C1920   1.403       .  A
C1919      C1924   1.410       .  A
C1919      H1926   1.084       .  S
C1920      C2593   1.416       .  A
C1921      C2592   1.414       .  A
C1921      C1922   1.408       .  A
C1921      N1928   1.438       .  S
C1922      C2595   1.403       .  A
C1922      H1927   1.084       .  S
C1923      C2594   1.402       .  A
C1923      C1924   1.416       .  A
C1924      N1925   1.437       .  S
N1925      H1929   1.046       .  S
N1925      H1930   1.042       .  S
N1928      H1931   1.042       .  S
N1928      H1932   1.046       .  S
C1933      C1938   1.406       .  A
C1933      H1940   1.084       .  S
C1934      C1935   1.412       .  A
C1935      C1936   1.404       .  A
C1935      N1942   1.438       .  S
C1936      C1937   1.404   1_655  A
C1936      H1941   1.084       .  S
C1938      N1939   1.438       .  S
N1939      H1943   1.046       .  S
N1939      H1944   1.046       .  S
N1942      H1945   1.046       .  S
N1942      H1946   1.046       .  S
C1947      C1952   1.407       .  A
C1947      H1954   1.084       .  S
C1948      C1949   1.413       .  A
C1949      C1950   1.411       .  A
C1949      N1956   1.438       .  S
C1950      C1951   1.405       .  A
C1950      H1955   1.084       .  S
C1952      N1953   1.438       .  S
N1953      H1957   1.046       .  S
N1953      H1958   1.046       .  S
N1956      H1959   1.046       .  S
N1956      H1960   1.046       .  S
C1961      C1962   1.406       .  A
C1961      C1966   1.409       .  A
C1961      H1968   1.084       .  S
C1962      C1963   1.411       .  A
C1963      C1964   1.400       .  A
C1963      N1970   1.433       .  S
C1964      C1965   1.405       .  A
C1964      H1969   1.084       .  S
C1965      C1966   1.416       .  A
C1966      N1967   1.436       .  S
N1967      H1971   1.046       .  S
N1967      H1972   1.043       .  S
N1970      H1973   1.045       .  S
N1970      H1974   1.046       .  S
C1975      C2648   1.408       .  A
C1975      C1980   1.412       .  A
C1975      H1982   1.084       .  S
C1976      C2647   1.407       .  A
C1976      C1977   1.413       .  A
C1977      C1978   1.404       .  A
C1977      N1984   1.438       .  S
C1978      C1979   1.404       .  A
C1978      H1983   1.084       .  S
C1979      C2652   1.414       .  A
C1980      C2651   1.416       .  A
C1980      N1981   1.438       .  S
N1981      H1985   1.046       .  S
N1981      H1986   1.042       .  S
N1984      H1987   1.045       .  S
N1984      H1988   1.046       .  S
C1989      C1994   1.401       .  A
C1989      H1996   1.084       .  S
C1990      C1991   1.411       .  A
C1991      C1992   1.404       .  A
C1991      N1998   1.438       .  S
C1992      C1993   1.402       .  A
C1992      H1997   1.084       .  S
C1994      N1995   1.433       .  S
N1995      H1999   1.046       .  S
N1995      H2000   1.045       .  S
N1998      H2001   1.045       .  S
N1998      H2002   1.046       .  S
C2003      C2004   1.403   1_565  A
C2003      C2008   1.409       .  A
C2003      H2010   1.084       .  S
C2005      C2006   1.405       .  A
C2005      N2012   1.438       .  S
C2006      H2011   1.084       .  S
C2007      C2008   1.414   1_545  A
C2008      N2009   1.438       .  S
N2009      H2013   1.045       .  S
N2009      H2014   1.044       .  S
N2012      H2015   1.046       .  S
N2012      H2016   1.045       .  S
O2018      V2025   1.901       .  S
O2019      V2025   1.899       .  S
O2019      C2029   1.264       .  A
O2020      C2030   1.264       .  A
O2022      V2026   1.896       .  S
O2023      C2028   1.265       .  A
O2024      V2026   1.902       .  S
O2024      C2027   1.266       .  A
C2027      C2676   1.479       .  S
C2028      C2084   1.466       .  S
C2029      C2043   1.461       .  S
C2030      C2044   1.467       .  S
O2031      V2039   1.906       .  S
O2031      C2041   1.266       .  A
O2032      V2039   1.906       .  S
O2033      V2039   1.895       .  S
O2034      V2039   1.903       .  S
O2035      V2040   1.902       .  S
O2035      C2044   1.265       .  A
O2036      V2040   1.898       .  S
O2036      C2043   1.263       .  A
O2037      V2040   1.903       .  S
O2037      C2042   1.264       .  A
O2038      V2040   1.905       .  S
C2041      C2662   1.488       .  S
C2042      C2098   1.461       .  S
O2045      V2053   1.908       .  S
O2045      C2055   1.267       .  A
O2047      C2057   1.264       .  A
O2048      V2053   1.901   1_565  S
O2048      C2058   1.264       .  A
O2049      V2054   1.900   1_565  S
O2049      C2058   1.264       .  A
O2050      C2057   1.263       .  A
O2051      V2054   1.905       .  S
O2051      C2056   1.264       .  A
V2053      V2054   2.088       .  T
C2055      C2648   1.494       .  S
C2057      C2071   1.463       .  S
C2058      C2072   1.467       .  S
O2059      V2067   1.903       .  S
O2059      C2069   1.266       .  A
O2060      V2067   1.904       .  S
O2060      C2070   1.263       .  A
O2061      V2067   1.898       .  S
O2061      C2071   1.264       .  A
O2062      V2067   1.902       .  S
O2062      C2072   1.265       .  A
O2063      V2068   1.900       .  S
O2063      C2072   1.264       .  A
O2064      V2068   1.898       .  S
O2064      C2071   1.263       .  A
O2065      V2068   1.907       .  S
O2065      C2070   1.265       .  A
O2066      V2068   1.910       .  S
O2066      C2069   1.267       .  A
V2067      V2068   2.088       .  T
C2069      C2634   1.493       .  S
C2070      C2126   1.468       .  S
O2074      V2081   1.906       .  S
O2074      C2084   1.264   1_565  A
O2075      V2081   1.895       .  S
O2075      C2085   1.263   1_565  A
O2076      C2086   1.265   1_565  A
O2078      V2082   1.898       .  S
O2080      V2082   1.904       .  S
O2080      C2083   1.266       .  A
C2083      C2623   1.482       .  S
O2087      V2095   1.906       .  S
O2087      C2097   1.265       .  A
O2089      C2099   1.262       .  A
O2090      V2095   1.899       .  S
O2090      C2100   1.264       .  A
O2091      V2096   1.897       .  S
O2091      C2100   1.263       .  A
O2092      C2099   1.264       .  A
O2093      V2096   1.903       .  S
O2093      C2098   1.263       .  A
V2095      V2096   2.089       .  T
C2097      C2606   1.485   1_655  S
C2099      C2128   1.460       .  S
C2100      C2127   1.464       .  S
O2101      V2109   1.904   1_545  S
O2102      V2109   1.908       .  S
O2103      V2109   1.896       .  S
O2104      V2109   1.894       .  S
O2105      V2110   1.901       .  S
O2105      C2114   1.264       .  A
O2106      V2110   1.902       .  S
O2106      C2113   1.265       .  A
O2107      V2110   1.902       .  S
O2107      C2112   1.263       .  A
O2108      V2110   1.898       .  S
O2108      C2111   1.264       .  A
C2111      C2595   1.481       .  S
O2115      V2123   1.910       .  S
O2115      C2125   1.266       .  A
O2116      V2123   1.906       .  S
O2116      C2126   1.266       .  A
O2117      V2123   1.895       .  S
O2117      C2127   1.262       .  A
O2118      V2123   1.893       .  S
O2118      C2128   1.263       .  A
O2119      V2124   1.900       .  S
O2119      C2128   1.264       .  A
O2120      V2124   1.901       .  S
O2120      C2127   1.265       .  A
O2121      V2124   1.906       .  S
O2121      C2126   1.263       .  A
O2122      V2124   1.900       .  S
O2122      C2125   1.265       .  A
V2123      V2124   2.088       .  T
C2125      C2578   1.487       .  S
O2129      V2137   1.896       .  S
O2129      C2139   1.266   1_655  A
O2131      C2141   1.265   1_655  A
O2132      V2137   1.895       .  S
O2132      C2142   1.263   1_655  A
O2133      V2138   1.899       .  S
O2135      V2138   1.904       .  S
C2139      C2564   1.488       .  S
C2141      C2155   1.465       .  S
C2142      C2156   1.463       .  S
O2143      V2151   1.905       .  S
O2144      V2151   1.905       .  S
O2145      V2151   1.901       .  S
O2146      V2151   1.902       .  S
O2147      V2152   1.895       .  S
O2147      C2156   1.263   1_655  A
O2148      V2152   1.898       .  S
O2148      C2155   1.263   1_655  A
O2149      V2152   1.903       .  S
O2149      C2154   1.264   1_655  A
O2150      V2152   1.904       .  S
O2150      C2153   1.266   1_655  A
C2153      C2550   1.493       .  S
C2154      C2322   1.463       .  S
O2157      V2165   1.903       .  S
O2157      C2167   1.265       .  A
O2159      C2169   1.265       .  A
O2160      V2165   1.895       .  S
O2160      C2170   1.263       .  A
O2161      V2166   1.897       .  S
O2161      C2170   1.263       .  A
O2162      C2169   1.263       .  A
O2163      V2166   1.906       .  S
O2163      C2168   1.264       .  A
V2165      V2166   2.089       .  T
C2167      C2536   1.487       .  S
C2168      C2336   1.465       .  S
C2169      C2183   1.468       .  S
C2170      C2184   1.461       .  S
O2171      V2179   1.905       .  S
O2171      C2181   1.266       .  A
O2172      V2179   1.907       .  S
O2172      C2182   1.264       .  A
O2173      V2179   1.900       .  S
O2173      C2183   1.265       .  A
O2174      V2179   1.898       .  S
O2174      C2184   1.264       .  A
O2175      V2180   1.895       .  S
O2175      C2184   1.263       .  A
O2176      V2180   1.902       .  S
O2176      C2183   1.264       .  A
O2177      V2180   1.910       .  S
O2177      C2182   1.267       .  A
O2178      V2180   1.912       .  S
O2178      C2181   1.267       .  A
V2179      V2180   2.087       .  T
C2181      C2522   1.494       .  S
C2182      C2350   1.472       .  S
O2186      V2193   1.894       .  S
O2187      V2193   1.898       .  S
O2187      C2197   1.263   1_655  A
O2188      C2198   1.264   1_655  A
O2190      V2194   1.896       .  S
O2192      V2194   1.903       .  S
C2195      C2567   1.489       .  S
C2196      C2420   1.468       .  S
C2197      C2211   1.463       .  S
C2198      C2212   1.462       .  S
O2199      V2207   1.909       .  S
O2200      V2207   1.908       .  S
O2201      V2207   1.900       .  S
O2202      V2207   1.898       .  S
O2203      V2208   1.896       .  S
O2203      C2212   1.263   1_655  A
O2204      V2208   1.897       .  S
O2204      C2211   1.263   1_655  A
O2205      V2208   1.901       .  S
O2205      C2210   1.265   1_655  A
O2206      V2208   1.903       .  S
O2206      C2209   1.266   1_655  A
C2209      C2553   1.493       .  S
O2213      V2221   1.911       .  S
O2213      C2223   1.267       .  A
O2215      C2225   1.263       .  A
O2216      V2221   1.899   1_565  S
O2216      C2226   1.263       .  A
O2217      V2222   1.897   1_565  S
O2217      C2226   1.264       .  A
O2218      C2225   1.263       .  A
O2219      V2222   1.899       .  S
O2219      C2224   1.264       .  A
V2221      V2222   2.088       .  T
C2223      C2539   1.489       .  S
C2224      C2448   1.474       .  S
C2225      C2240   1.461       .  S
C2226      C2239   1.463       .  S
O2227      V2235   1.915       .  S
O2227      C2237   1.268       .  A
O2228      V2235   1.916       .  S
O2228      C2238   1.267       .  A
O2229      V2235   1.901       .  S
O2229      C2239   1.264       .  A
O2230      V2235   1.898       .  S
O2230      C2240   1.263       .  A
O2231      V2236   1.895       .  S
O2231      C2240   1.263       .  A
O2232      V2236   1.895       .  S
O2232      C2239   1.263       .  A
O2233      V2236   1.898       .  S
O2233      C2238   1.264       .  A
O2234      V2236   1.900       .  S
O2234      C2237   1.264       .  A
V2235      V2236   2.087       .  T
C2237      C2525   1.493       .  S
C2238      C2462   1.476       .  S
O2241      V2249   1.899       .  S
O2241      C2251   1.264       .  A
O2243      C2253   1.263       .  A
O2244      V2249   1.897       .  S
O2244      C2254   1.264       .  A
O2245      V2250   1.896       .  S
O2247      V2250   1.892       .  S
C2251      C2511   1.475       .  S
C2252      C2364   1.468       .  S
C2253      C2282   1.462       .  S
C2254      C2281   1.461       .  S
O2255      V2263   1.893       .  S
O2255      C2265   1.264       .  A
O2256      V2263   1.892       .  S
O2256      C2266   1.263   1_554  A
O2257      V2263   1.895   1_655  S
O2257      C2267   1.263       .  A
O2258      C2268   1.264       .  A
O2259      C2268   1.263       .  A
O2260      V2264   1.897   1_655  S
O2260      C2267   1.263       .  A
O2261      V2264   1.917       .  S
O2261      C2266   1.267   1_554  A
O2262      V2264   1.915       .  S
O2262      C2265   1.268       .  A
V2263      V2264   2.088       .  T
C2265      C2494   1.493       .  S
C2266      C2378   1.472       .  S
C2267      C2296   1.460       .  S
C2268      C2295   1.463       .  S
O2269      V2277   1.899       .  S
O2269      C2279   1.264       .  A
O2270      V2277   1.900       .  S
O2270      C2280   1.264   1_554  A
O2271      V2277   1.896       .  S
O2271      C2281   1.263       .  A
O2272      V2277   1.897       .  S
O2272      C2282   1.263       .  A
O2273      V2278   1.896       .  S
O2274      V2278   1.896       .  S
O2275      V2278   1.893       .  S
O2276      V2278   1.895       .  S
C2279      C2483   1.480       .  S
C2280      C2392   1.470       .  S
O2283      V2291   1.895       .  S
O2283      C2293   1.265       .  A
O2284      V2291   1.894       .  S
O2284      C2294   1.263   1_554  A
O2285      V2291   1.897       .  S
O2285      C2295   1.263       .  A
O2286      V2291   1.896       .  S
O2286      C2296   1.263       .  A
O2287      V2292   1.896       .  S
O2287      C2296   1.263       .  A
O2288      V2292   1.898       .  S
O2288      C2295   1.263       .  A
O2289      V2292   1.919       .  S
O2289      C2294   1.268   1_554  A
O2290      V2292   1.919       .  S
O2290      C2293   1.269       .  A
V2291      V2292   2.087       .  T
C2293      C2466   1.497       .  S
C2294      C2406   1.475       .  S
O2298      V2305   1.902       .  S
O2298      C2308   1.263       .  A
O2299      V2305   1.899       .  S
O2299      C2309   1.264       .  A
O2300      C2310   1.263       .  A
O2302      V2306   1.893       .  S
O2304      V2306   1.904       .  S
C2307      C2508   1.476       .  S
C2309      C2338   1.461       .  S
C2310      C2337   1.463       .  S
O2311      V2319   1.904       .  S
O2311      C2321   1.266       .  A
O2313      C2323   1.263       .  A
O2314      V2319   1.897   1_655  S
O2314      C2324   1.263       .  A
O2315      V2320   1.900   1_655  S
O2315      C2324   1.264       .  A
O2316      C2323   1.263       .  A
O2317      V2320   1.900       .  S
O2317      C2322   1.264       .  A
V2319      V2320   2.088       .  T
C2321      C2497   1.493       .  S
C2323      C2352   1.460       .  S
C2324      C2351   1.464       .  S
O2325      V2333   1.902       .  S
O2325      C2335   1.265       .  A
O2326      V2333   1.904       .  S
O2326      C2336   1.264       .  A
O2327      V2333   1.899       .  S
O2327      C2337   1.264       .  A
O2328      V2333   1.897       .  S
O2328      C2338   1.263       .  A
O2329      V2334   1.895       .  S
O2330      V2334   1.897       .  S
O2331      V2334   1.905       .  S
O2332      V2334   1.900       .  S
C2335      C2480   1.479       .  S
O2339      V2347   1.902       .  S
O2339      C2349   1.266       .  A
O2340      V2347   1.908       .  S
O2340      C2350   1.264       .  A
O2341      V2347   1.900       .  S
O2341      C2351   1.264       .  A
O2342      V2347   1.897       .  S
O2342      C2352   1.263       .  A
O2343      V2348   1.895       .  S
O2343      C2352   1.263       .  A
O2344      V2348   1.897       .  S
O2344      C2351   1.263       .  A
O2345      V2348   1.910       .  S
O2345      C2350   1.267       .  A
O2346      V2348   1.913       .  S
O2346      C2349   1.268       .  A
V2347      V2348   2.087       .  T
C2349      C2469   1.498       .  S
O2353      V2361   1.895       .  S
O2356      V2361   1.899       .  S
O2357      V2362   1.894       .  S
O2357      C2366   1.263       .  A
O2358      C2365   1.263       .  A
O2359      V2362   1.898       .  S
O2359      C2364   1.263       .  A
C2363      C2620   1.481       .  S
C2365      C2394   1.462       .  S
C2366      C2393   1.462       .  S
O2368      V2375   1.917       .  S
O2368      C2378   1.267       .  A
O2369      V2375   1.894   1_655  S
O2369      C2379   1.262       .  A
O2370      C2380   1.263       .  A
O2371      C2380   1.263       .  A
O2372      V2376   1.900   1_655  S
O2372      C2379   1.264       .  A
O2374      V2376   1.891       .  S
O2374      C2377   1.263       .  A
V2375      V2376   2.088       .  T
C2377      C2609   1.485       .  S
C2379      C2408   1.462       .  S
C2380      C2407   1.462       .  S
O2381      V2389   1.889       .  S
O2382      V2389   1.889       .  S
O2383      V2389   1.901       .  S
O2384      V2389   1.898       .  S
O2385      V2390   1.899       .  S
O2385      C2394   1.263       .  A
O2386      V2390   1.896       .  S
O2386      C2393   1.263       .  A
O2387      V2390   1.899       .  S
O2387      C2392   1.264       .  A
O2388      V2390   1.900       .  S
O2388      C2391   1.264       .  A
C2391      C2592   1.481       .  S
O2395      V2403   1.915       .  S
O2395      C2405   1.267       .  A
O2396      V2403   1.917       .  S
O2396      C2406   1.267       .  A
O2397      V2403   1.899       .  S
O2397      C2407   1.264       .  A
O2398      V2403   1.897       .  S
O2398      C2408   1.263       .  A
O2399      V2404   1.898       .  S
O2399      C2408   1.263       .  A
O2400      V2404   1.895       .  S
O2400      C2407   1.263       .  A
O2401      V2404   1.895       .  S
O2401      C2406   1.264       .  A
O2402      V2404   1.895       .  S
O2402      C2405   1.264       .  A
V2403      V2404   2.088       .  T
C2405      C2581   1.487       .  S
O2410      V2417   1.899       .  S
O2410      C2420   1.263       .  A
O2411      V2417   1.900       .  S
O2411      C2421   1.264       .  A
O2412      C2422   1.264       .  A
O2414      V2418   1.897       .  S
O2416      V2418   1.897       .  S
C2419      C2679   1.479       .  S
C2421      C2436   1.463       .  S
C2422      C2435   1.461       .  S
O2423      V2431   1.907       .  S
O2423      C2433   1.267       .  A
O2424      V2431   1.908       .  S
O2424      C2434   1.266       .  A
O2425      V2431   1.899       .  S
O2425      C2435   1.264       .  A
O2426      V2431   1.897       .  S
O2426      C2436   1.263       .  A
O2427      V2432   1.897       .  S
O2428      V2432   1.899       .  S
O2429      V2432   1.900       .  S
O2430      V2432   1.900       .  S
C2433      C2665   1.489       .  S
O2437      V2445   1.900       .  S
O2437      C2447   1.266       .  A
O2439      C2449   1.263       .  A
O2440      V2445   1.898   1_565  S
O2440      C2450   1.263       .  A
O2441      V2446   1.896   1_565  S
O2441      C2450   1.263       .  A
O2442      C2449   1.264       .  A
O2443      V2446   1.912       .  S
O2443      C2448   1.267       .  A
V2445      V2446   2.088       .  T
C2447      C2651   1.494       .  S
C2449      C2464   1.464       .  S
C2450      C2463   1.461       .  S
O2451      V2459   1.900       .  S
O2451      C2461   1.265       .  A
O2452      V2459   1.898       .  S
O2452      C2462   1.264       .  A
O2453      V2459   1.898       .  S
O2453      C2463   1.263       .  A
O2454      V2459   1.897       .  S
O2454      C2464   1.264       .  A
O2455      V2460   1.899       .  S
O2455      C2464   1.263       .  A
O2456      V2460   1.895       .  S
O2456      C2463   1.263       .  A
O2457      V2460   1.916       .  S
O2457      C2462   1.267       .  A
O2458      V2460   1.913       .  S
O2458      C2461   1.268       .  A
V2459      V2460   2.087       .  T
C2461      C2637   1.496       .  S
C2465      C2466   1.406       .  A
C2465      C2470   1.405       .  A
C2465      H2472   1.083       .  S
C2466      C2467   1.416       .  A
C2467      C2468   1.415       .  A
C2467      N2474   1.437       .  S
C2468      C2469   1.410       .  A
C2468      H2473   1.084       .  S
C2469      C2470   1.416       .  A
C2470      N2471   1.439       .  S
N2471      H2475   1.046       .  S
N2471      H2476   1.046       .  S
N2474      H2477   1.042       .  S
N2474      H2478   1.046       .  S
C2479      C2480   1.404       .  A
C2479      C2484   1.399       .  A
C2479      H2486   1.084       .  S
C2481      C2482   1.398       .  A
C2481      N2488   1.433   1_545  S
C2482      H2487   1.084   1_545  S
C2483      C2484   1.415       .  A
C2484      N2485   1.433       .  S
N2485      H2489   1.044       .  S
N2485      H2490   1.045       .  S
N2488      H2491   1.046       .  S
N2488      H2492   1.044       .  S
C2493      C2498   1.405       .  A
C2493      H2500   1.084       .  S
C2494      C2495   1.415       .  A
C2495      C2496   1.412       .  A
C2495      N2502   1.437       .  S
C2496      C2497   1.409       .  A
C2496      H2501   1.084       .  S
C2498      N2499   1.438       .  S
N2499      H2503   1.046       .  S
N2499      H2504   1.045       .  S
N2502      H2505   1.043       .  S
N2502      H2506   1.046       .  S
C2507      C2512   1.398       .  A
C2507      H2514   1.084   1_545  S
C2509      C2510   1.400       .  A
C2509      N2516   1.433       .  S
C2510      H2515   1.084       .  S
C2512      N2513   1.433   1_545  S
N2513      H2517   1.044       .  S
N2513      H2518   1.046   1_565  S
N2516      H2519   1.045       .  S
N2516      H2520   1.045       .  S
C2521      C2522   1.405       .  A
C2521      C2526   1.401       .  A
C2521      H2528   1.084       .  S
C2522      C2523   1.419       .  A
C2523      C2524   1.406       .  A
C2523      N2530   1.431       .  S
C2524      C2525   1.407       .  A
C2524      H2529   1.084       .  S
C2525      C2526   1.419       .  A
C2526      N2527   1.433       .  S
N2527      H2531   1.044       .  S
N2527      H2532   1.046       .  S
N2530      H2533   1.046       .  S
N2530      H2534   1.042       .  S
C2535      C2536   1.407       .  A
C2535      C2540   1.408       .  A
C2535      H2542   1.084       .  S
C2537      C2538   1.407       .  A
C2537      N2544   1.438       .  S
C2538      C2539   1.406   1_565  A
C2538      H2543   1.084       .  S
C2540      N2541   1.438       .  S
N2541      H2545   1.046       .  S
N2541      H2546   1.046       .  S
N2544      H2547   1.046       .  S
N2544      H2548   1.046       .  S
C2549      C2554   1.410       .  A
C2549      H2556   1.084       .  S
C2550      C2551   1.416   1_455  A
C2551      C2552   1.409       .  A
C2551      N2558   1.438       .  S
C2552      C2553   1.407   1_655  A
C2552      H2557   1.083       .  S
C2554      N2555   1.438       .  S
N2555      H2559   1.046       .  S
N2555      H2560   1.043       .  S
N2558      H2561   1.046       .  S
N2558      H2562   1.046       .  S
C2563      C2568   1.400       .  A
C2563      H2570   1.084       .  S
C2565      C2566   1.400       .  A
C2565      N2572   1.433       .  S
C2566      H2571   1.084       .  S
C2568      N2569   1.433       .  S
N2569      H2573   1.046       .  S
N2569      H2574   1.045   1_545  S
N2572      H2575   1.044       .  S
N2572      H2576   1.046       .  S
C2577      C2578   1.408       .  A
C2577      C2582   1.407       .  A
C2577      H2584   1.084       .  S
C2578      C2579   1.416       .  A
C2579      C2580   1.398       .  A
C2579      N2586   1.433       .  S
C2580      C2581   1.404       .  A
C2580      H2585   1.084       .  S
C2581      C2582   1.416       .  A
C2582      N2583   1.432       .  S
N2583      H2587   1.044       .  S
N2583      H2588   1.046       .  S
N2586      H2589   1.046       .  S
N2586      H2590   1.044       .  S
C2591      C2592   1.403       .  A
C2591      C2596   1.406       .  A
C2591      H2598   1.084       .  S
C2593      C2594   1.405       .  A
C2593      N2600   1.439   1_545  S
C2594      H2599   1.084   1_545  S
C2595      C2596   1.414       .  A
C2596      N2597   1.439       .  S
N2597      H2601   1.046       .  S
N2597      H2602   1.044       .  S
N2600      H2603   1.045       .  S
N2600      H2604   1.045       .  S
C2605      C2610   1.404       .  A
C2605      H2612   1.084       .  S
C2606      C2607   1.414   1_455  A
C2607      C2608   1.411       .  A
C2607      N2614   1.438       .  S
C2608      C2609   1.406   1_655  A
C2608      H2613   1.084       .  S
C2610      N2611   1.439       .  S
N2611      H2615   1.046       .  S
N2611      H2616   1.046       .  S
N2614      H2617   1.046       .  S
N2614      H2618   1.046       .  S
C2619      C2624   1.404       .  A
C2619      H2626   1.084       .  S
C2620      C2621   1.413       .  A
C2621      C2622   1.405       .  A
C2621      N2628   1.438       .  S
C2622      C2623   1.403       .  A
C2622      H2627   1.084       .  S
C2624      N2625   1.438   1_545  S
N2625      H2629   1.045       .  S
N2625      H2630   1.046   1_565  S
N2628      H2631   1.046       .  S
N2628      H2632   1.046       .  S
C2633      C2634   1.406       .  A
C2633      C2638   1.413       .  A
C2633      H2640   1.083       .  S
C2634      C2635   1.412       .  A
C2635      C2636   1.404       .  A
C2635      N2642   1.432       .  S
C2636      C2637   1.407       .  A
C2636      H2641   1.084       .  S
C2637      C2638   1.417       .  A
C2638      N2639   1.436       .  S
N2639      H2643   1.045       .  S
N2639      H2644   1.042       .  S
N2642      H2645   1.046       .  S
N2642      H2646   1.046       .  S
C2647      C2652   1.410       .  A
C2647      H2654   1.084       .  S
C2648      C2649   1.415   1_545  A
C2649      C2650   1.407       .  A
C2649      N2656   1.438       .  S
C2650      C2651   1.406   1_565  A
C2650      H2655   1.084       .  S
C2652      N2653   1.438       .  S
N2653      H2657   1.045       .  S
N2653      H2658   1.043       .  S
N2656      H2659   1.045       .  S
N2656      H2660   1.046       .  S
C2661      C2666   1.408       .  A
C2661      H2668   1.083       .  S
C2662      C2663   1.414       .  A
C2663      C2664   1.409       .  A
C2663      N2670   1.438       .  S
C2664      C2665   1.404       .  A
C2664      H2669   1.084       .  S
C2666      N2667   1.438       .  S
N2667      H2671   1.045       .  S
N2667      H2672   1.046       .  S
N2670      H2673   1.044       .  S
N2670      H2674   1.045       .  S
C2675      C2676   1.403       .  A
C2675      C2680   1.405       .  A
C2675      H2682   1.084       .  S
C2677      C2678   1.409       .  A
C2677      N2684   1.438       .  S
C2678      H2683   1.084       .  S
C2679      C2680   1.413       .  A
C2680      N2681   1.439       .  S
N2681      H2685   1.046       .  S
N2681      H2686   1.044       .  S
N2684      H2687   1.046       .  S
N2684      H2688   1.046       .  S
