geometry optimzed in LAMMPS
_audit_creation_date              2020-11-30 
_audit_creation_method            'lammps2cif' 
_symmetry_space_group_name_H-M    'P1' 
_symmetry_Int_Tables_number       1 
_symmetry_cell_setting            triclinic 
loop_ 
_symmetry_equiv_pos_as_xyz 
  x,y,z 
_cell_length_a                    48.37854778 
_cell_length_b                    48.36108476265178 
_cell_length_c                    48.331097866024585 
_cell_angle_alpha                 89.91544486309793 
_cell_angle_beta                  90.09605261918806 
_cell_angle_gamma                 90.07649651330908 
loop_ 
_atom_site_label 
_atom_site_type_symbol 
_atom_site_fract_x 
_atom_site_fract_y 
_atom_site_fract_z 
_atom_site_charge 
O1          O  0.94919559  0.99750315  0.95666441    -0.77900
C2          C  0.02384930  0.94677721  0.94800352     0.83100
O3          O  0.96350570  0.95814587  0.04668268    -0.79000
O4          O  0.06055797  0.97552875  0.02916124    -0.80500
O5          O  0.02780834  0.05698100  0.98126174    -0.80300
O6          O  0.96062517  0.04160401  0.96309449    -0.78900
Zn7        Zn  0.97624259  0.97473665  0.97898803     1.55700
O8          O  0.05972428  0.02364558  0.98135553    -0.80300
Cd9        Cd  0.99153311  0.03742417  0.99361575     1.59700
Cd10       Cd  0.99283206  0.98926191  0.04191090     1.59600
O11         O  0.97951204  0.05780575  0.02990776    -0.80300
O12         O  0.99989183  0.99738337  0.00178619    -1.90800
Cd13       Cd  0.03953857  0.98799716  0.99354993     1.59900
O14         O  0.98049905  0.02468660  0.06211568    -0.80300
O15         O  0.04291806  0.95792890  0.96251393    -0.78900
C16         C  0.95151650  0.94365720  0.02819067     0.83600
C17         C  0.94568849  0.02311071  0.95148783     0.83200
O18         O  0.99846859  0.95203628  0.95239078    -0.77900
C19         C  0.05278962  0.04891201  0.97851266     0.84100
O20         O  0.95501521  0.94818654  0.00249112    -0.78000
C21         C  0.97721173  0.04985533  0.05503689     0.84200
C22         C  0.05364332  0.97329212  0.05452304     0.84500
O23         O  0.02879723  0.97745517  0.06223864    -0.80400
O24         O  0.99973668  0.29920622  0.29914611    -0.77900
C25         C  0.94974263  0.30461676  0.22660652     0.83100
O26         O  0.95979744  0.20810586  0.29202073    -0.79000
O27         O  0.97645984  0.22332858  0.19358836    -0.80500
O28         O  0.05953096  0.27118435  0.22466438    -0.80300
O29         O  0.04398723  0.29103228  0.29051289    -0.78900
Zn30       Zn  0.97703140  0.27461760  0.27506690     1.55700
O31         O  0.02682094  0.26815160  0.19205617    -0.80300
Cd32       Cd  0.03944340  0.25971431  0.26082802     1.59700
Cd33       Cd  0.99083243  0.21099917  0.26148175     1.59600
O34         O  0.05950090  0.22417768  0.27412861    -0.80300
O35         O  0.99949842  0.25089380  0.25271341    -1.90800
Cd36       Cd  0.99071833  0.25866628  0.21286072     1.59900
O37         O  0.02688008  0.19147663  0.27496057    -0.80300
O38         O  0.96198354  0.29067345  0.20789157    -0.78900
C39         C  0.94678286  0.22750503  0.30434831     0.83600
C40         C  0.02518988  0.30423958  0.30341324     0.83200
O41         O  0.95374508  0.29968169  0.25211572    -0.77900
C42         C  0.05182832  0.27206982  0.19943548     0.84100
O43         O  0.95195129  0.25277717  0.29917464    -0.78000
C44         C  0.05194884  0.19919353  0.27820677     0.84200
C45         C  0.97419630  0.19801034  0.20044590     0.84500
O46         O  0.97852843  0.19010823  0.22536596    -0.80400
O47         O  0.74984221  0.29941617  0.45620644    -0.77900
C48         C  0.79966450  0.30678277  0.52915062     0.83100
O49         O  0.78950933  0.20994907  0.46462097    -0.79000
O50         O  0.77307333  0.22505881  0.56329490    -0.80500
O51         O  0.68993220  0.27222959  0.53225774    -0.80300
O52         O  0.70563967  0.29093871  0.46553086    -0.78900
Zn53       Zn  0.77280191  0.27607820  0.48117608     1.55700
O54         O  0.72280344  0.27151090  0.56460803    -0.80300
Cd55       Cd  0.71007494  0.26046574  0.49608792     1.59700
Cd56       Cd  0.75881612  0.21304057  0.49488399     1.59600
O57         O  0.69029689  0.22452659  0.48323837    -0.80300
O58         O  0.75015986  0.25262919  0.50397928    -1.90800
Cd59       Cd  0.75884650  0.26067417  0.54391396     1.59900
O60         O  0.72340316  0.19249396  0.48161870    -0.80300
O61         O  0.78810569  0.29248769  0.54811893    -0.78900
C62         C  0.80369407  0.22902383  0.45314369     0.83600
C63         C  0.72427870  0.30384200  0.45198531     0.83200
O64         O  0.79513458  0.30204948  0.50372368    -0.77900
C65         C  0.69760036  0.27460266  0.55745115     0.84100
O66         O  0.79930923  0.25444637  0.45810919    -0.78000
C67         C  0.69819832  0.19974493  0.47883482     0.84200
C68         C  0.77647579  0.20011935  0.55545513     0.84500
O69         O  0.77212939  0.19278041  0.53043932    -0.80400
O70         O  0.79782193  0.00094771  0.79851759    -0.77900
C71         C  0.72358108  0.94955362  0.80614492     0.83100
O72         O  0.78754017  0.96283753  0.70941538    -0.79000
O73         O  0.68954457  0.97706556  0.72380969    -0.80500
O74         O  0.71785236  0.05857878  0.77610716    -0.80300
O75         O  0.78550262  0.04494743  0.79351471    -0.78900
Zn76       Zn  0.77128513  0.97813073  0.77634064     1.55700
O77         O  0.68623434  0.02523405  0.77271423    -0.80300
Cd78       Cd  0.75451167  0.04041443  0.76326429     1.59700
Cd79       Cd  0.75757557  0.99374557  0.71347171     1.59600
O80         O  0.76608470  0.06199211  0.72800741    -0.80300
O81         O  0.74792160  0.00063140  0.75336023    -1.90800
Cd82       Cd  0.70817817  0.99046149  0.76023254     1.59900
O83         O  0.77043476  0.03033777  0.69468240    -0.80300
O84         O  0.70475460  0.96003903  0.79087191    -0.78900
C85         C  0.79891980  0.94810717  0.72814264     0.83600
C86         C  0.80112481  0.02643945  0.80407183     0.83200
O87         O  0.74897546  0.95546838  0.80275198    -0.77900
C88         C  0.69288676  0.05026481  0.77791307     0.84100
O89         O  0.79364072  0.95205915  0.75361452    -0.78000
C90         C  0.77126322  0.05537959  0.70300555     0.84200
C91         C  0.69776327  0.97527410  0.69880747     0.84500
O92         O  0.72262572  0.98095224  0.69202800    -0.80400
O93         O  0.30163197  0.95692510  0.25419451    -0.77900
C94         C  0.30427130  0.03191961  0.30516695     0.83100
O95         O  0.21161172  0.96080760  0.28999036    -0.79000
O96         O  0.22051388  0.06037485  0.27644273    -0.80500
O97         O  0.27497762  0.03413927  0.19548453    -0.80300
O98         O  0.29477135  0.96725531  0.20984336    -0.78900
Zn99       Zn  0.27765853  0.98197235  0.27666694     1.55700
O100        O  0.26857368  0.06557791  0.22860062    -0.80300
Cd101      Cd  0.26353497  0.99706777  0.21388481     1.59700
Cd102      Cd  0.21389801  0.99193671  0.26014005     1.59600
O103        O  0.22879762  0.98437968  0.19188242    -0.80300
O104        O  0.25331479  0.00349487  0.25366977    -1.90800
Cd105      Cd  0.25783382  0.04354152  0.26369526     1.59900
O106        O  0.19563775  0.97886313  0.22343741    -0.80300
O107        O  0.28826226  0.04960423  0.29388339    -0.78900
C108        C  0.23092510  0.94977146  0.30421424     0.83600
C109        C  0.30662456  0.95300883  0.22868439     0.83200
O110        O  0.30228399  0.00620903  0.29979732    -0.77900
C111        C  0.27426486  0.05921384  0.20367183     0.84100
O112        O  0.25606670  0.95693323  0.30127792    -0.78000
C113        C  0.20389679  0.97859700  0.19837875     0.84200
C114        C  0.19588671  0.05095715  0.27738884     0.84500
O115        O  0.19037129  0.02565545  0.27238829    -0.80400
O116        O  0.04892106  0.54746194  0.50147895    -0.77900
C117        C  0.97486049  0.55433742  0.55337378     0.83100
O118        O  0.03704881  0.45812485  0.54264888    -0.79000
O119        O  0.94042692  0.47460626  0.52457327    -0.80500
O120        O  0.97080523  0.52295461  0.44185619    -0.80300
O121        O  0.03807784  0.53956440  0.45744025    -0.78900
Zn122      Zn  0.02298494  0.52496813  0.52489417     1.55700
O123        O  0.93912857  0.52209512  0.47513180    -0.80300
Cd124      Cd  0.00693293  0.50991752  0.46182338     1.59700
Cd125      Cd  0.00841636  0.46213876  0.51046855     1.59600
O126        O  0.02001086  0.47404135  0.44210292    -0.80300
O127        O  0.99975263  0.50194287  0.50203135    -1.90800
Cd128      Cd  0.96002216  0.51012724  0.51061033     1.59900
O129        O  0.02286468  0.44213067  0.47526552    -0.80300
O130        O  0.95610471  0.54111398  0.54035495    -0.78900
C131        C  0.04928392  0.47684324  0.55662643     0.83600
C132        C  0.05273663  0.55173226  0.47573006     0.83200
O133        O  0.00042823  0.55030195  0.54874040    -0.77900
C134        C  0.94585665  0.52607756  0.44996742     0.84100
O135        O  0.04547711  0.50235214  0.55137546    -0.78000
C136        C  0.02552843  0.44947097  0.45000676     0.84200
C137        C  0.94797357  0.44952643  0.52756291     0.84500
O138        O  0.97273211  0.44188507  0.52272131    -0.80400
O139        O  0.44524421  0.29462286  0.74928226    -0.77900
C140        C  0.43854940  0.21896955  0.79787105     0.83100
O141        O  0.53361806  0.28581200  0.79037878    -0.79000
O142        O  0.52180415  0.18801415  0.77038167    -0.80500
O143        O  0.47290020  0.22036574  0.68894423    -0.80300
O144        O  0.45416087  0.28663748  0.70500577    -0.78900
Zn145      Zn  0.46776119  0.26864879  0.77196046     1.55700
O146        O  0.47428590  0.18689504  0.72084051    -0.80300
Cd147      Cd  0.48438446  0.25602940  0.70950625     1.59700
Cd148      Cd  0.53157826  0.25720693  0.75815438     1.59600
O149        O  0.52021118  0.26902726  0.68997339    -0.80300
O150        O  0.49222204  0.24719435  0.74931803    -1.90800
Cd151      Cd  0.48545284  0.20687401  0.75722030     1.59900
O152        O  0.55200181  0.27210027  0.72325452    -0.80300
O153        O  0.45418749  0.20103231  0.78655998    -0.78900
C154        C  0.51414091  0.29668195  0.80443801     0.83600
C155        C  0.44125005  0.29983991  0.72379078     0.83200
O156        O  0.44151217  0.24469869  0.79319240    -0.77900
C157        C  0.47092111  0.19500137  0.69592024     0.84100
O158        O  0.48895523  0.29143596  0.79908093    -0.78000
C159        C  0.54482965  0.27422880  0.69792299     0.84200
C160        C  0.54663753  0.19661297  0.77293763     0.84500
O161        O  0.55310942  0.22195147  0.76949796    -0.80400
O162        O  0.80150077  0.75156482  0.95049570    -0.77900
C163        C  0.72738996  0.79983835  0.94668182     0.83100
O164        O  0.79341875  0.78615436  0.04315576    -0.79000
O165        O  0.69481622  0.76880418  0.02673929    -0.80500
O166        O  0.72883694  0.68883006  0.97502642    -0.80300
O167        O  0.79529030  0.70676817  0.95914565    -0.78900
Zn168      Zn  0.77673107  0.77295150  0.97575453     1.55700
O169        O  0.69531906  0.72024162  0.97819749    -0.80300
Cd170      Cd  0.76406379  0.70911543  0.98919425     1.59700
Cd171      Cd  0.76316408  0.75570174  0.03857888     1.59600
O172        O  0.77518754  0.68768514  0.02490859    -0.80300
O173        O  0.75479855  0.74859920  0.99845408    -1.90800
Cd174      Cd  0.71467294  0.75631005  0.99086114     1.59900
O175        O  0.77484524  0.71936030  0.05837710    -0.80300
O176        O  0.70919743  0.78646782  0.96031416    -0.78900
C177        C  0.80516106  0.80116951  0.02489404     0.83600
C178        C  0.80705634  0.72630038  0.94576801     0.83200
O179        O  0.75308490  0.79627337  0.95101282    -0.77900
C180        C  0.70346865  0.69571791  0.97291698     0.84100
O181        O  0.80001480  0.79812116  0.99920776    -0.78000
C182        C  0.77753341  0.69438030  0.05033796     0.84200
C183        C  0.70266207  0.77215080  0.05171392     0.84500
O184        O  0.72772722  0.76841936  0.05906670    -0.80400
O185        O  0.29556515  0.25127444  0.95153267    -0.77900
C186        C  0.22196394  0.30328076  0.94796761     0.83100
O187        O  0.28823214  0.29261923  0.04100648    -0.79000
O188        O  0.18963429  0.27279334  0.02881577    -0.80500
O189        O  0.22008354  0.19226848  0.98020650    -0.80300
O190        O  0.28602848  0.20722160  0.96060512    -0.78900
Zn191      Zn  0.27092326  0.27451966  0.97510806     1.55700
O192        O  0.18770718  0.22505263  0.98059389    -0.80300
Cd193      Cd  0.25625963  0.21227330  0.99156207     1.59700
Cd194      Cd  0.25839437  0.26148921  0.03862713     1.59600
O195        O  0.26937805  0.19287389  0.02755414    -0.80300
O196        O  0.24862228  0.25229857  0.99933511    -1.90800
Cd197      Cd  0.20853462  0.26064372  0.99253975     1.59900
O198        O  0.27173490  0.22635993  0.05908724    -0.80300
O199        O  0.20359991  0.29169299  0.96294022    -0.78900
C200        C  0.29980017  0.30618494  0.02154756     0.83600
C201        C  0.29974049  0.22563075  0.94754876     0.83200
O202        O  0.24746078  0.29742172  0.95031919    -0.77900
C203        C  0.19503526  0.19992691  0.97731096     0.84100
O204        O  0.29459879  0.30109482  0.99625164    -0.78000
C205        C  0.27407816  0.20104031  0.05223030     0.84200
C206        C  0.19809245  0.27660881  0.05348187     0.84500
O207        O  0.22348588  0.27384206  0.06006218    -0.80400
O208        O  0.74725883  0.44629340  0.29565967    -0.77900
C209        C  0.80064520  0.44478262  0.22442811     0.83100
O210        O  0.78411342  0.53815446  0.29258445    -0.79000
O211        O  0.77116373  0.52633322  0.19240910    -0.80500
O212        O  0.69011904  0.47316337  0.21968656    -0.80300
O213        O  0.70314035  0.45545089  0.28660024    -0.78900
Zn214      Zn  0.77056955  0.47163147  0.27292151     1.55700
O215        O  0.72355673  0.47708389  0.18829293    -0.80300
Cd216      Cd  0.70818517  0.48593010  0.25636021     1.59700
Cd217      Cd  0.75502704  0.53522903  0.26058855     1.59600
O218        O  0.68635214  0.52076168  0.26781096    -0.80300
O219        O  0.74815098  0.49553255  0.25020654    -1.90800
Cd220      Cd  0.75819254  0.48955962  0.21038072     1.59900
O221        O  0.71823488  0.55381397  0.27272631    -0.80300
O222        O  0.78894704  0.45968415  0.20604496    -0.78900
C223        C  0.79738606  0.51914893  0.30525196     0.83600
C224        C  0.72165373  0.44189393  0.29961038     0.83200
O225        O  0.79512698  0.44739842  0.25002137    -0.77900
C226        C  0.69852307  0.47193563  0.19471446     0.84100
O227        O  0.79390140  0.49373502  0.29923386    -0.78000
C228        C  0.69316198  0.54560252  0.27340602     0.84200
C229        C  0.77349127  0.55113702  0.20104655     0.84500
O230        O  0.76848671  0.55760080  0.22616889    -0.80400
O231        O  0.45485136  0.94923532  0.49367749    -0.77900
C232        C  0.44848968  0.02801602  0.44926199     0.83100
O233        O  0.54390600  0.95818490  0.45928569    -0.79000
O234        O  0.53154910  0.05761435  0.48089710    -0.80500
O235        O  0.47489736  0.02123411  0.55757254    -0.80300
O236        O  0.46351739  0.95450083  0.53849783    -0.78900
Zn237      Zn  0.47757284  0.97703146  0.47287107     1.55700
O238        O  0.48075864  0.05633219  0.52834672    -0.80300
Cd239      Cd  0.49124311  0.98756703  0.53684984     1.59700
Cd240      Cd  0.54056452  0.98788765  0.49054336     1.59600
O241        O  0.52689742  0.97760813  0.55844953    -0.80300
O242        O  0.50086855  0.99769026  0.49776015    -1.90800
Cd243      Cd  0.49451742  0.03833969  0.49169984     1.59900
O244        O  0.56001558  0.97449832  0.52655773    -0.80300
O245        O  0.46417685  0.04538278  0.46150633    -0.78900
C246        C  0.52541547  0.94879739  0.44289618     0.83600
C247        C  0.45128371  0.94197818  0.51873124     0.83200
O248        O  0.45155793  0.00205688  0.45239538    -0.77900
C249        C  0.47367417  0.04696196  0.55204393     0.84100
O250        O  0.50008630  0.95549559  0.44535539    -0.78000
C251        C  0.55200938  0.97345368  0.55167437     0.84200
C252        C  0.55623424  0.04883677  0.47766126     0.84500
O253        O  0.56234591  0.02324948  0.47958868    -0.80400
O254        O  0.00207792  0.71027071  0.69427778    -0.77900
C255        C  0.05336262  0.78377836  0.69224922     0.83100
O256        O  0.04244549  0.71297264  0.78449766    -0.79000
O257        O  0.02579906  0.81287451  0.77577563    -0.80500
O258        O  0.94355740  0.78320606  0.72587039    -0.80300
O259        O  0.95823883  0.71721745  0.70620115    -0.78900
Zn260      Zn  0.02566605  0.73363238  0.71906313     1.55700
O261        O  0.97605978  0.81584267  0.72774299    -0.80300
Cd262      Cd  0.96342312  0.74694107  0.73719711     1.59700
Cd263      Cd  0.01256273  0.74394216  0.78363243     1.59600
O264        O  0.94376744  0.73349559  0.77299507    -0.80300
O265        O  0.00357326  0.75488103  0.74453047    -1.90800
Cd266      Cd  0.01210386  0.79524807  0.73890869     1.59900
O267        O  0.97731293  0.73086967  0.80447656    -0.80300
O268        O  0.04195090  0.80147292  0.70810323    -0.78900
C269        C  0.05609739  0.70209178  0.76474824     0.83600
C270        C  0.97640396  0.70549594  0.69113794     0.83200
O271        O  0.04827520  0.75805269  0.69439983    -0.77900
C272        C  0.95101057  0.80847396  0.72392256     0.84100
O273        O  0.05158041  0.70852398  0.73959382    -0.78000
C274        C  0.95193599  0.72850096  0.79759606     0.84200
C275        C  0.03025903  0.80338901  0.80003539     0.84500
O276        O  0.02682947  0.77784790  0.80577553    -0.80400
O277        O  0.45639244  0.80034883  0.25011396    -0.77900
C278        C  0.44636350  0.72437481  0.29667596     0.83100
O279        O  0.54556496  0.78806583  0.28644996    -0.79000
O280        O  0.52752293  0.69005408  0.26784067    -0.80500
O281        O  0.47828278  0.72450901  0.18643072    -0.80300
O282        O  0.46183586  0.79167715  0.20533443    -0.78900
Zn283      Zn  0.47839368  0.77271206  0.27137250     1.55700
O284        O  0.48116116  0.69112121  0.21818660    -0.80300
Cd285      Cd  0.49109492  0.75972161  0.20774185     1.59700
Cd286      Cd  0.54056205  0.75860987  0.25492667     1.59600
O287        O  0.52673620  0.77157034  0.18706649    -0.80300
O288        O  0.50048351  0.75038826  0.24726866    -1.90800
Cd289      Cd  0.49193824  0.71041108  0.25497068     1.59900
O290        O  0.56026942  0.77124752  0.21879422    -0.80300
O291        O  0.46004350  0.70561545  0.28415507    -0.78900
C292        C  0.52712764  0.79909079  0.30173908     0.83600
C293        C  0.45099061  0.80567086  0.22490235     0.83200
O294        O  0.45168984  0.74987009  0.29295001    -0.77900
C295        C  0.47728634  0.69901376  0.19328729     0.84100
O296        O  0.50160236  0.79385915  0.29813147    -0.78000
C297        C  0.55208416  0.77422466  0.19383456     0.84200
C298        C  0.55279956  0.69738122  0.27007722     0.84500
O299        O  0.56036846  0.72238860  0.26647693    -0.80400
O300        O  0.20382692  0.74864828  0.54751279    -0.77900
C301        C  0.19550758  0.69834521  0.47195358     0.83100
O302        O  0.29161341  0.70589573  0.53605550    -0.79000
O303        O  0.27849169  0.72589778  0.43839822    -0.80500
O304        O  0.22982650  0.80642930  0.47047807    -0.80300
O305        O  0.21318041  0.79240354  0.53701439    -0.78900
Zn306      Zn  0.22529467  0.72508440  0.52089938     1.55700
O307        O  0.23015133  0.77372679  0.43820287    -0.80300
Cd308      Cd  0.24275086  0.78682249  0.50620866     1.59700
Cd309      Cd  0.28946585  0.73778864  0.50711905     1.59600
O310        O  0.27889207  0.80621305  0.51876902    -0.80300
O311        O  0.24992808  0.74680911  0.49834704    -1.90800
Cd312      Cd  0.24263646  0.73820087  0.45841255     1.59900
O313        O  0.31009688  0.77257103  0.52172988    -0.80300
O314        O  0.21181177  0.70839718  0.45382421    -0.78900
C315        C  0.27227520  0.69245223  0.54795651     0.83600
C316        C  0.20057659  0.77442630  0.55163141     0.83200
O317        O  0.19808818  0.70395589  0.49756245    -0.77900
C318        C  0.22641593  0.79873670  0.44545719     0.84100
O319        O  0.24692055  0.69780476  0.54327151    -0.78000
C320        C  0.30338946  0.79795291  0.52405095     0.84200
C321        C  0.30356719  0.72330698  0.44619154     0.84500
O322        O  0.31058714  0.72643518  0.47144026    -0.80400
O323        O  0.29356823  0.44902548  0.75127286    -0.77900
C324        C  0.30606800  0.52583693  0.79947653     0.83100
O325        O  0.20778045  0.46327728  0.79299952    -0.79000
O326        O  0.22244580  0.55966781  0.77405863    -0.80500
O327        O  0.27034493  0.52781535  0.69210929    -0.80300
O328        O  0.28665413  0.46102437  0.70728710    -0.78900
Zn329      Zn  0.27413069  0.47730964  0.77466715     1.55700
O330        O  0.26979895  0.56012708  0.72492747    -0.80300
Cd331      Cd  0.25760717  0.49224177  0.71220100     1.59700
Cd332      Cd  0.21081031  0.49119077  0.76052975     1.59600
O333        O  0.22157831  0.47966101  0.69262895    -0.80300
O334        O  0.25035649  0.50002455  0.75220287    -1.90800
Cd335      Cd  0.25806746  0.53983207  0.76076138     1.59900
O336        O  0.19017717  0.47628323  0.72589260    -0.80300
O337        O  0.28982280  0.54411741  0.78959910    -0.78900
C338        C  0.22659997  0.45286577  0.80827182     0.83600
C339        C  0.29749296  0.44530495  0.72548647     0.83200
O340        O  0.30290202  0.50022888  0.79418958    -0.77900
C341        C  0.27316332  0.55287716  0.69982287     0.84100
O342        O  0.25216164  0.45724668  0.80374183    -0.78000
C343        C  0.19704177  0.47429070  0.70048922     0.84200
C344        C  0.19732645  0.55182576  0.77586134     0.84500
O345        O  0.19013059  0.52685773  0.77139457    -0.80400
O346        O  0.50153985  0.45192112  0.94784945    -0.77900
C347        C  0.44846221  0.44883117  0.01994030     0.83100
O348        O  0.46752339  0.54312876  0.95367156    -0.79000
O349        O  0.47891806  0.53065093  0.05269505    -0.80500
O350        O  0.55862709  0.47419020  0.02701023    -0.80300
O351        O  0.54552458  0.45616198  0.96080273    -0.78900
Zn352      Zn  0.47942565  0.47627311  0.97245920     1.55700
O353        O  0.52498810  0.47949444  0.05809926    -0.80300
Cd354      Cd  0.54185600  0.48764287  0.99005244     1.59700
Cd355      Cd  0.49745277  0.53868118  0.98468053     1.59600
O356        O  0.56529203  0.52162960  0.97798449    -0.80300
O357        O  0.50237206  0.49889947  0.99566962    -1.90800
Cd358      Cd  0.49103728  0.49319419  0.03532710     1.59900
O359        O  0.53487399  0.55580305  0.97238441    -0.80300
O360        O  0.45920887  0.46387542  0.03880420    -0.78900
C361        C  0.45218689  0.52460175  0.94277383     0.83600
C362        C  0.52681414  0.44520774  0.94577319     0.83200
O363        O  0.45502723  0.45167788  0.99466177    -0.77900
C364        C  0.54975759  0.47291788  0.05179220     0.84100
O365        O  0.45505144  0.49916349  0.94865414    -0.78000
C366        C  0.55964990  0.54675934  0.97225296     0.84200
C367        C  0.47882596  0.55551251  0.04375109     0.84500
O368        O  0.48534141  0.56150664  0.01887935    -0.80400
C369        C  0.32926835  0.53397275  0.81766666    -0.11400
C370        C  0.32562309  0.55179080  0.84046353     0.04100
C371        C  0.34720938  0.55552780  0.85946741    -0.11900
C372        C  0.37252858  0.54184990  0.85608228     0.18900
C373        C  0.37658475  0.52507069  0.83268160    -0.09000
C374        C  0.35505825  0.52127517  0.81373576    -0.01900
H375        H  0.34371942  0.56790757  0.87779917     0.05500
C376        C  0.39212529  0.54075752  0.87951919     0.20900
H377        H  0.35813952  0.50746805  0.79637318     0.10600
C378        C  0.38574559  0.52307629  0.90154611    -0.15300
C379        C  0.40459708  0.51860940  0.92292856     0.03600
C380        C  0.43051192  0.53210807  0.92258748    -0.10600
C381        C  0.43633559  0.55102601  0.90126563    -0.00700
C382        C  0.41736832  0.55529074  0.87966965    -0.05800
H383        H  0.36623989  0.51207271  0.90168875     0.06600
H384        H  0.45607972  0.56155412  0.90075306     0.10000
Br385      Br  0.41020162  0.50477683  0.82718548    -0.05500
Br386      Br  0.29069939  0.56863664  0.84866778    -0.02500
Br387      Br  0.39346083  0.49400056  0.95216245     0.00400
Br388      Br  0.42695113  0.58039817  0.85049424    -0.04000
C389        C  0.27864375  0.67003818  0.56791271    -0.11400
C390        C  0.30192825  0.67061141  0.58567014     0.04100
C391        C  0.30465722  0.65060084  0.60651810    -0.11900
C392        C  0.28468856  0.62986268  0.60984749     0.18900
C393        C  0.26216722  0.62856248  0.59152150    -0.09000
C394        C  0.25932386  0.64846574  0.57081446    -0.01900
H395        H  0.32191776  0.65176228  0.62079595     0.05500
C396        C  0.28579919  0.61138294  0.63408609     0.20900
H397        H  0.24143322  0.64744054  0.55732444     0.10600
C398        C  0.27267120  0.61979537  0.65842771    -0.15300
C399        C  0.26928887  0.60153574  0.68060244     0.03600
C400        C  0.27943312  0.57414133  0.67860882    -0.10600
C401        C  0.29367676  0.56625132  0.65450163    -0.00700
C402        C  0.29689111  0.58463167  0.63235447    -0.05800
H403        H  0.26380307  0.64034525  0.65963979     0.06600
H404        H  0.30170988  0.54543521  0.65253911     0.10000
Br405      Br  0.23395910  0.60080588  0.59499901    -0.05500
Br406      Br  0.32935762  0.69929990  0.58437866    -0.02500
Br407      Br  0.24798196  0.61482114  0.71138609     0.00400
Br408      Br  0.31534007  0.57208901  0.59962290    -0.04000
C409        C  0.47295041  0.57839723  0.06323289    -0.11400
C410        C  0.45278159  0.57633440  0.08422908     0.04100
C411        C  0.45060371  0.59719750  0.10424140    -0.11900
C412        C  0.46816113  0.62029678  0.10362996     0.18900
C413        C  0.48750452  0.62291303  0.08208110    -0.09000
C414        C  0.48960002  0.60221230  0.06201824    -0.01900
H415        H  0.43556969  0.59510318  0.12072660     0.05500
C416        C  0.46822962  0.63989754  0.12711525     0.20900
H417        H  0.50528705  0.60414666  0.04613163     0.10600
C418        C  0.48419165  0.63342473  0.15039441    -0.15300
C419        C  0.48694153  0.65208781  0.17229310     0.03600
C420        C  0.47303593  0.67784551  0.17140713    -0.10600
C421        C  0.45675209  0.68413427  0.14805752    -0.00700
C422        C  0.45428590  0.66538816  0.12603430    -0.05800
H423        H  0.49542492  0.61405665  0.15106459     0.06600
H424        H  0.44618663  0.70383164  0.14676395     0.10000
Br425      Br  0.51271631  0.65353336  0.08031472    -0.05500
Br426      Br  0.42729057  0.54595651  0.08614222    -0.02500
Br427      Br  0.51247944  0.64202553  0.20112729     0.00400
Br428      Br  0.43231019  0.67554204  0.09458302    -0.04000
C429        C  0.32503224  0.71751790  0.42492722    -0.11400
C430        C  0.35247571  0.72756756  0.42729844     0.04100
C431        C  0.37105675  0.72411547  0.40538831    -0.11900
C432        C  0.36295022  0.71113160  0.38079068     0.18900
C433        C  0.33596064  0.70056649  0.37850490    -0.09000
C434        C  0.31732130  0.70372648  0.40044005    -0.01900
H435        H  0.39169045  0.73277483  0.40704919     0.05500
C436        C  0.38208673  0.71178045  0.35691734     0.20900
H437        H  0.29644348  0.69590028  0.39804123     0.10600
C438        C  0.40345624  0.69228042  0.35482436    -0.15300
C439        C  0.42398648  0.69483945  0.33441018     0.03600
C440        C  0.42338564  0.71750039  0.31589240    -0.10600
C441        C  0.40120155  0.73621637  0.31748901    -0.00700
C442        C  0.38078036  0.73355181  0.33767837    -0.05800
H443        H  0.40468227  0.67553933  0.36973035     0.06600
H444        H  0.40013951  0.75365037  0.30338343     0.10000
Br445      Br  0.32343790  0.68276234  0.34534765    -0.05500
Br446      Br  0.36543195  0.74882089  0.45831873    -0.02500
Br447      Br  0.45339522  0.66827387  0.33459235     0.00400
Br448      Br  0.35241878  0.76123076  0.33926427    -0.04000
C449        C  0.18119274  0.78335051  0.57354979    -0.11400
C450        C  0.17940499  0.76901546  0.59896984     0.04100
C451        C  0.15851350  0.77553808  0.61778272    -0.11900
C452        C  0.13908764  0.79616465  0.61182373     0.18900
C453        C  0.14172751  0.81163037  0.58726510    -0.09000
C454        C  0.16281161  0.80528423  0.56840257    -0.01900
H455        H  0.15677680  0.76373570  0.63675485     0.05500
C456        C  0.11477862  0.79859133  0.63020728     0.20900
H457        H  0.16402447  0.81664865  0.54913723     0.10600
C458        C  0.11754604  0.81113559  0.65625664    -0.15300
C459        C  0.09674436  0.80839753  0.67631827     0.03600
C460        C  0.07298025  0.79249245  0.67047305    -0.10600
C461        C  0.06972482  0.78122008  0.64390927    -0.00700
C462        C  0.09025411  0.78426132  0.62383632    -0.05800
H463        H  0.13651687  0.82186240  0.66146095     0.06600
H464        H  0.05159735  0.76892461  0.63912605     0.10000
Br465      Br  0.11634056  0.84070032  0.57827945    -0.05500
Br466      Br  0.20503861  0.74051749  0.60940671    -0.02500
Br467      Br  0.10326542  0.82395150  0.71222473     0.00400
Br468      Br  0.08502995  0.76618171  0.58887472    -0.04000
C469        C  0.17539428  0.57256078  0.78085966    -0.11400
C470        C  0.17976105  0.59673397  0.79667747     0.04100
C471        C  0.15952722  0.61745221  0.79711724    -0.11900
C472        C  0.13483045  0.61440687  0.78219710     0.18900
C473        C  0.12994832  0.58986522  0.76743331    -0.09000
C474        C  0.15001058  0.56915574  0.76704762    -0.01900
H475        H  0.16329811  0.63628860  0.80868221     0.05500
C476        C  0.11553062  0.63791386  0.77994680     0.20900
H477        H  0.14625101  0.55086692  0.75463409     0.10600
C478        C  0.12127647  0.65873516  0.76063425    -0.15300
C479        C  0.10252571  0.68019022  0.75593206     0.03600
C480        C  0.07745579  0.68110231  0.77086984    -0.10600
C481        C  0.07225833  0.66077518  0.79103163    -0.00700
C482        C  0.09100564  0.63914886  0.79548735    -0.05800
H483        H  0.14024115  0.65797999  0.74877887     0.06600
H484        H  0.05316120  0.66117728  0.80267939     0.10000
Br485      Br  0.09703976  0.58457911  0.74582948    -0.05500
Br486      Br  0.21246783  0.60237744  0.81850261    -0.02500
Br487      Br  0.11283330  0.70804670  0.72947596     0.00400
Br488      Br  0.08212093  0.61135666  0.82238936    -0.04000
C489        C  0.53444985  0.81867822  0.32429386    -0.11400
C490        C  0.55638292  0.83797541  0.32241256     0.04100
C491        C  0.55901224  0.85889633  0.34242729    -0.11900
C492        C  0.54030689  0.86075015  0.36451601     0.18900
C493        C  0.51939751  0.84074249  0.36714822    -0.09000
C494        C  0.51667520  0.82001022  0.34727662    -0.01900
H495        H  0.57509240  0.87435297  0.34022245     0.05500
C496        C  0.54073349  0.88500787  0.38315193     0.20900
H497        H  0.49985261  0.80533860  0.34935840     0.10600
C498        C  0.52548769  0.90846532  0.37560092    -0.15300
C499        C  0.52139482  0.93010630  0.39433722     0.03600
C500        C  0.53293565  0.92862167  0.42115877    -0.10600
C501        C  0.54956699  0.90582345  0.42810951    -0.00700
C502        C  0.55326210  0.88396282  0.40943190    -0.05800
H503        H  0.51580117  0.90942996  0.35540386     0.06600
H504        H  0.55842948  0.90426834  0.44864115     0.10000
Br505      Br  0.49289191  0.84199545  0.39664537    -0.05500
Br506      Br  0.58178549  0.83853609  0.29196433    -0.02500
Br507      Br  0.49981940  0.96114468  0.38215261     0.00400
Br508      Br  0.57400779  0.85228744  0.42116003    -0.04000
C509        C  0.43203556  0.91879998  0.52468941    -0.11400
C510        C  0.42801072  0.89697044  0.50560499     0.04100
C511        C  0.40744523  0.87722650  0.51032657    -0.11900
C512        C  0.39077792  0.87845243  0.53391657     0.18900
C513        C  0.39571650  0.89908328  0.55380932    -0.09000
C514        C  0.41626104  0.91905567  0.54913975    -0.01900
H515        H  0.40401786  0.86109434  0.49517932     0.05500
C516        C  0.36720446  0.85909396  0.53593785     0.20900
H517        H  0.41921443  0.93535187  0.56419184     0.10600
C518        C  0.37150721  0.83207197  0.54546655    -0.15300
C519        C  0.35064073  0.81201143  0.54334193     0.03600
C520        C  0.32487794  0.81891720  0.53112292    -0.10600
C521        C  0.32035644  0.84654240  0.52303615    -0.00700
C522        C  0.34123108  0.86642032  0.52518032    -0.05800
H523        H  0.39150534  0.82635993  0.55386653     0.06600
H524        H  0.30091353  0.85254944  0.51362291     0.10000
Br525      Br  0.37438667  0.90102247  0.58713800    -0.05500
Br526      Br  0.45028830  0.89217714  0.47304791    -0.02500
Br527      Br  0.35897835  0.77588280  0.55763167     0.00400
Br528      Br  0.33406139  0.90288504  0.51118834    -0.04000
C529        C  0.67809132  0.46542390  0.17267366    -0.11400
C530        C  0.68040092  0.47621729  0.14549570     0.04100
C531        C  0.65873593  0.47260367  0.12663917    -0.11900
C532        C  0.63451863  0.45866331  0.13422584     0.18900
C533        C  0.63263801  0.44671577  0.16068955    -0.09000
C534        C  0.65426129  0.45018925  0.17964883    -0.01900
H535        H  0.66022093  0.48192336  0.10628473     0.05500
C536        C  0.61076734  0.45917649  0.11495065     0.20900
H537        H  0.65210101  0.44148174  0.20020009     0.10600
C538        C  0.61183059  0.44375860  0.09044153    -0.15300
C539        C  0.59139925  0.44673979  0.07007723     0.03600
C540        C  0.56940345  0.46552757  0.07414251    -0.10600
C541        C  0.56780677  0.47995314  0.09929187    -0.00700
C542        C  0.58839376  0.47720388  0.11942379    -0.05800
H543        H  0.62901621  0.42985706  0.08686059     0.06600
H544        H  0.55132793  0.49473455  0.10266952     0.10000
Br545      Br  0.60063399  0.42616180  0.17198056    -0.05500
Br546      Br  0.71090996  0.49858852  0.13323687    -0.02500
Br547      Br  0.59456788  0.42441623  0.03740614     0.00400
Br548      Br  0.58644627  0.50052795  0.15147602    -0.04000
C549        C  0.57394511  0.67585549  0.27596261    -0.11400
C550        C  0.60150099  0.67802275  0.26620833     0.04100
C551        C  0.61979528  0.65592680  0.26974790    -0.11900
C552        C  0.61132276  0.63140069  0.28258838     0.18900
C553        C  0.58432778  0.62939575  0.29312895    -0.09000
C554        C  0.56590003  0.65145774  0.28973130    -0.01900
H555        H  0.64052816  0.65744600  0.26139129     0.05500
C556        C  0.63045668  0.60760487  0.28265062     0.20900
H557        H  0.54500773  0.64930572  0.29750625     0.10600
C558        C  0.65323976  0.60751882  0.30064185    -0.15300
C559        C  0.67347818  0.58688753  0.29882503     0.03600
C560        C  0.67098191  0.56589406  0.27873056    -0.10600
C561        C  0.64758267  0.56550614  0.26148197    -0.00700
C562        C  0.62761947  0.58629344  0.26305000    -0.05800
H563        H  0.65556220  0.62390616  0.31576674     0.06600
H564        H  0.64551218  0.54972633  0.24568472     0.10000
Br565      Br  0.57171245  0.59672628  0.31180565    -0.05500
Br566      Br  0.61522538  0.70910912  0.24549850    -0.02500
Br567      Br  0.70369246  0.58801387  0.32456551     0.00400
Br568      Br  0.59807340  0.58601009  0.23647178    -0.04000
C569        C  0.21885193  0.43420153  0.83113150    -0.11400
C570        C  0.23233478  0.43528801  0.85702672     0.04100
C571        C  0.22766439  0.41445636  0.87657239    -0.11900
C572        C  0.20967686  0.39248346  0.87070484     0.18900
C573        C  0.19470925  0.39246778  0.84573457    -0.09000
C574        C  0.19927631  0.41332451  0.82618943    -0.01900
H575        H  0.23896890  0.41476311  0.89592559     0.05500
C576        C  0.20957172  0.36825059  0.88925712     0.20900
H577        H  0.18858513  0.41238977  0.80651144     0.10600
C578        C  0.19604492  0.36948826  0.91488264    -0.15300
C579        C  0.19831062  0.34767170  0.93390601     0.03600
C580        C  0.21442328  0.32432123  0.92724319    -0.10600
C581        C  0.22726466  0.32294418  0.90128172    -0.00700
C582        C  0.22504155  0.34463322  0.88240411    -0.05800
H583        H  0.18449117  0.38783364  0.92042888     0.06600
H584        H  0.24003553  0.30530987  0.89607567     0.10000
Br585      Br  0.16901738  0.36352828  0.83698539    -0.05500
Br586      Br  0.25707742  0.46480399  0.86683527    -0.02500
Br587      Br  0.18161173  0.35214706  0.96960228     0.00400
Br588      Br  0.24540980  0.34199483  0.84843622    -0.04000
C589        C  0.31944099  0.32883475  0.02776663    -0.11400
C590        C  0.34029463  0.32649696  0.04809851     0.04100
C591        C  0.36025059  0.34740570  0.05073990    -0.11900
C592        C  0.35962249  0.37083003  0.03358517     0.18900
C593        C  0.33827055  0.37362486  0.01400949    -0.09000
C594        C  0.31848943  0.35274457  0.01121727    -0.01900
H595        H  0.37696361  0.34488663  0.06547772     0.05500
C596        C  0.38339086  0.39005584  0.03339980     0.20900
H597        H  0.30260772  0.35491634  0.99552568     0.10600
C598        C  0.40672606  0.38265282  0.01803597    -0.15300
C599        C  0.42861003  0.40116013  0.01449777     0.03600
C600        C  0.42756401  0.42761044  0.02680647    -0.10600
C601        C  0.40474204  0.43455121  0.04333948    -0.00700
C602        C  0.38256019  0.41605996  0.04644513    -0.05800
H603        H  0.40751901  0.36266102  0.00802057     0.06600
H604        H  0.40353552  0.45483260  0.05268877     0.10000
Br605      Br  0.33638254  0.40474427  0.98937688    -0.05500
Br606      Br  0.34431497  0.29412357  0.07073748    -0.02500
Br607      Br  0.45941008  0.38906901  0.99257085     0.00400
Br608      Br  0.35104887  0.42747547  0.06751096    -0.04000
C609        C  0.68235742  0.67437875  0.96609982    -0.11400
C610        C  0.68851371  0.64986939  0.95135318     0.04100
C611        C  0.66834160  0.62918634  0.94852796    -0.11900
C612        C  0.64195789  0.63237831  0.96006291     0.18900
C613        C  0.63559450  0.65698269  0.97417394    -0.09000
C614        C  0.65552944  0.67774536  0.97677183    -0.01900
H615        H  0.67342838  0.61022818  0.93772463     0.05500
C616        C  0.62229921  0.60887363  0.95986880     0.20900
H617        H  0.65032777  0.69611080  0.98849449     0.10600
C618        C  0.62752589  0.58632551  0.97731479    -0.15300
C619        C  0.60795628  0.56528012  0.98079272     0.03600
C620        C  0.58244924  0.56651513  0.96643677    -0.10600
C621        C  0.57781196  0.58861209  0.94803102    -0.00700
C622        C  0.59755862  0.60955161  0.94451631    -0.05800
H623        H  0.64647974  0.58574654  0.98929582     0.06600
H624        H  0.55853085  0.58985775  0.93665590     0.10000
Br625      Br  0.60078951  0.66223234  0.99246118    -0.05500
Br626      Br  0.72370728  0.64332119  0.93426289    -0.02500
Br627      Br  0.61644218  0.53726359  0.00773232     0.00400
Br628      Br  0.58980094  0.63886302  0.91887545    -0.04000
C629        C  0.68183194  0.77870720  0.07323651    -0.11400
C630        C  0.65784085  0.79442419  0.06762510     0.04100
C631        C  0.63731621  0.79711830  0.08787163    -0.11900
C632        C  0.64014833  0.78442764  0.11383394     0.18900
C633        C  0.66430342  0.76924830  0.11967420    -0.09000
C634        C  0.68497959  0.76685091  0.09963312    -0.01900
H635        H  0.61875279  0.80876234  0.08316230     0.05500
C636        C  0.61661182  0.78480073  0.13342328     0.20900
H637        H  0.70299878  0.75436173  0.10427607     0.10600
C638        C  0.59271735  0.76987427  0.12664203    -0.15300
C639        C  0.57097792  0.76714116  0.14550244     0.03600
C640        C  0.57294652  0.77955832  0.17196078    -0.10600
C641        C  0.59651151  0.79543668  0.17825526    -0.00700
C642        C  0.61806081  0.79841376  0.15911945    -0.05800
H643        H  0.59141851  0.75939175  0.10687500     0.06600
H644        H  0.59829139  0.80539154  0.19825032     0.10000
Br645      Br  0.66893725  0.74920268  0.15369158    -0.05500
Br646      Br  0.65201588  0.81311770  0.03305328    -0.02500
Br647      Br  0.54060883  0.74392599  0.13447258     0.00400
Br648      Br  0.64895186  0.82137756  0.16879844    -0.04000
C649        C  0.78023381  0.57337275  0.18086730    -0.11400
C650        C  0.79717505  0.56878129  0.15750124     0.04100
C651        C  0.79958535  0.58920743  0.13701795    -0.11900
C652        C  0.78552780  0.61444139  0.13932551     0.18900
C653        C  0.76936187  0.61943030  0.16302335    -0.09000
C654        C  0.76709588  0.59914396  0.18360975    -0.01900
H655        H  0.81215643  0.58520902  0.11891378     0.05500
C656        C  0.78599106  0.63421006  0.11579958     0.20900
H657        H  0.75375007  0.60303524  0.20117074     0.10600
C658        C  0.77170480  0.62734889  0.09150438    -0.15300
C659        C  0.76961268  0.64612242  0.06950573     0.03600
C660        C  0.78214394  0.67253277  0.07154030    -0.10600
C661        C  0.79722076  0.67896206  0.09562345    -0.00700
C662        C  0.79942738  0.65999607  0.11749263    -0.05800
H663        H  0.76128897  0.60753715  0.09002804     0.06600
H664        H  0.80713425  0.69898073  0.09758117     0.10000
Br665      Br  0.74805794  0.65262817  0.16713030    -0.05500
Br666      Br  0.81802055  0.53540396  0.15259455    -0.02500
Br667      Br  0.74709466  0.63509370  0.03860940     0.00400
Br668      Br  0.82108556  0.67007120  0.14919956    -0.04000
C669        C  0.82704162  0.72030798  0.92339405    -0.11400
C670        C  0.84970901  0.70232121  0.92685682     0.04100
C671        C  0.86974905  0.70025627  0.90595046    -0.11900
C672        C  0.86753641  0.71583963  0.88145169     0.18900
C673        C  0.84419768  0.73281502  0.87756489    -0.09000
C674        C  0.82441552  0.73504308  0.89846966    -0.01900
H675        H  0.88759921  0.68709314  0.90916472     0.05500
C676        C  0.89040722  0.71581324  0.86095517     0.20900
H677        H  0.80704408  0.74889395  0.89544393     0.10600
C678        C  0.88576170  0.70559712  0.83417741    -0.15300
C679        C  0.90574738  0.70850926  0.81337512     0.03600
C680        C  0.93125979  0.72159076  0.81932634    -0.10600
C681        C  0.93634690  0.73040238  0.84659827    -0.00700
C682        C  0.91620417  0.72784575  0.86720184    -0.05800
H683        H  0.86609231  0.69599808  0.82922876     0.06600
H684        H  0.95563876  0.74065619  0.85169139     0.10000
Br685      Br  0.83914040  0.75483469  0.84485117    -0.05500
Br686      Br  0.85557317  0.68217627  0.96055873    -0.02500
Br687      Br  0.89688043  0.69387574  0.77752031     0.00400
Br688      Br  0.92415604  0.74327900  0.90291873    -0.04000
C689        C  0.52064305  0.31643449  0.82703683    -0.11400
C690        C  0.50189603  0.32162730  0.84895212     0.04100
C691        C  0.50781447  0.34215097  0.86838250    -0.11900
C692        C  0.53205858  0.35783776  0.86662250     0.18900
C693        C  0.55128763  0.35210448  0.84563414    -0.09000
C694        C  0.54556319  0.33147529  0.82612002    -0.01900
H695        H  0.49307204  0.34635757  0.88468615     0.05500
C696        C  0.53568859  0.38110414  0.88603332     0.20900
H697        H  0.56029621  0.32781291  0.80969311     0.10600
C698        C  0.54146720  0.37561284  0.91397461    -0.15300
C699        C  0.54049852  0.39679882  0.93367700     0.03600
C700        C  0.53381821  0.42389402  0.92538306    -0.10600
C701        C  0.52880295  0.42948042  0.89735966    -0.00700
C702        C  0.52962498  0.40834326  0.87771243    -0.05800
H703        H  0.54543228  0.35459162  0.92062983     0.06600
H704        H  0.52286616  0.45012038  0.89095795     0.10000
Br705      Br  0.58528890  0.37230093  0.84266000    -0.05500
Br706      Br  0.46801185  0.30145467  0.85434860    -0.02500
Br707      Br  0.54518404  0.38727155  0.97194934     0.00400
Br708      Br  0.51950099  0.41712869  0.84030601    -0.04000
C709        C  0.46587498  0.17412756  0.67419856    -0.11400
C710        C  0.48070073  0.17474427  0.64908723     0.04100
C711        C  0.47713824  0.15361560  0.62976335    -0.11900
C712        C  0.45847084  0.13187229  0.63443639     0.18900
C713        C  0.44336593  0.13139095  0.65941737    -0.09000
C714        C  0.44737895  0.15227209  0.67913495    -0.01900
H715        H  0.48956940  0.15383335  0.61113321     0.05500
C716        C  0.45708321  0.10914193  0.61377400     0.20900
H717        H  0.43589989  0.15151623  0.69835368     0.10600
C718        C  0.46350271  0.08208339  0.62199559    -0.15300
C719        C  0.46663653  0.06086734  0.60257586     0.03600
C720        C  0.46498415  0.06691546  0.57387619    -0.10600
C721        C  0.45699768  0.09373950  0.56586517    -0.00700
C722        C  0.45259801  0.11454783  0.58545437    -0.05800
H723        H  0.46701030  0.07755710  0.64366472     0.06600
H724        H  0.45455045  0.09877011  0.54416030     0.10000
Br725      Br  0.41655180  0.10322439  0.66739569    -0.05500
Br726      Br  0.50791567  0.20251324  0.64081522    -0.02500
Br727      Br  0.47398114  0.02472400  0.61737513     0.00400
Br728      Br  0.44037852  0.15002491  0.57242541    -0.04000
C729        C  0.41622147  0.21057009  0.81702857    -0.11400
C730        C  0.42068146  0.19217324  0.83929942     0.04100
C731        C  0.40052245  0.18941794  0.85999774    -0.11900
C732        C  0.37571394  0.20436879  0.85854308     0.18900
C733        C  0.37050192  0.22114719  0.83534288    -0.09000
C734        C  0.39069356  0.22423738  0.81495431    -0.01900
H735        H  0.40479725  0.17670064  0.87797557     0.05500
C736        C  0.35776342  0.20641257  0.88317445     0.20900
H737        H  0.38685641  0.23830773  0.79790217     0.10600
C738        C  0.36384951  0.22700188  0.90257721    -0.15300
C739        C  0.34570796  0.23277468  0.92423337     0.03600
C740        C  0.32088052  0.21757600  0.92695923    -0.10600
C741        C  0.31549246  0.19589571  0.90831744    -0.00700
C742        C  0.33363305  0.19044259  0.88633013    -0.05800
H743        H  0.38242184  0.23930052  0.90029185     0.06600
H744        H  0.29656721  0.18407865  0.91005425     0.10000
Br745      Br  0.33695098  0.24201340  0.83183010    -0.05500
Br746      Br  0.45495301  0.17284251  0.84416631    -0.02500
Br747      Br  0.35626660  0.26164511  0.94944890     0.00400
Br748      Br  0.32415086  0.16211126  0.86029025    -0.04000
C749        C  0.42131583  0.32214442  0.71686609    -0.11400
C750        C  0.40484512  0.32234912  0.69262571     0.04100
C751        C  0.38429115  0.34261065  0.68928450    -0.11900
C752        C  0.37996308  0.36272447  0.70970281     0.18900
C753        C  0.39701129  0.36314158  0.73324022    -0.09000
C754        C  0.41740916  0.34312976  0.73659608    -0.01900
H755        H  0.37104521  0.34211482  0.67120583     0.05500
C756        C  0.35621531  0.38177975  0.70802746     0.20900
H757        H  0.42993932  0.34369578  0.75518473     0.10600
C758        C  0.33282802  0.37577381  0.72402381    -0.15300
C759        C  0.31261022  0.39582566  0.72858201     0.03600
C760        C  0.31558772  0.42238313  0.71689651    -0.10600
C761        C  0.33780582  0.42763585  0.69895516    -0.00700
C762        C  0.35821294  0.40754980  0.69461686    -0.05800
H763        H  0.33107827  0.35591174  0.73423000     0.06600
H764        H  0.34020897  0.44788875  0.68970906     0.10000
Br765      Br  0.39243429  0.39010769  0.76202029    -0.05500
Br766      Br  0.40764494  0.29447184  0.66456413    -0.02500
Br767      Br  0.28154047  0.38600150  0.75126493     0.00400
Br768      Br  0.38953170  0.41682622  0.67218437    -0.04000
C769        C  0.06802127  0.46964175  0.57997238    -0.11400
C770        C  0.08447546  0.44547728  0.58061922     0.04100
C771        C  0.10397716  0.44181920  0.60188153    -0.11900
C772        C  0.10708535  0.46159137  0.62289825     0.18900
C773        C  0.08982827  0.48497087  0.62295563    -0.09000
C774        C  0.07060931  0.48877263  0.60173211    -0.01900
H775        H  0.11742216  0.42391827  0.60153315     0.05500
C776        C  0.13070357  0.45980118  0.64234196     0.20900
H777        H  0.05805753  0.50730840  0.60191625     0.10600
C778        C  0.15702745  0.46670709  0.63256480    -0.15300
C779        C  0.17932935  0.47023521  0.65070072     0.03600
C780        C  0.17545271  0.46677646  0.67964289    -0.10600
C781        C  0.14925876  0.45800998  0.68903741    -0.00700
C782        C  0.12707119  0.45450016  0.67070394    -0.05800
H783        H  0.15993897  0.47071185  0.61067998     0.06600
H784        H  0.14565938  0.45464911  0.71090422     0.10000
Br785      Br  0.09317951  0.51351575  0.65035478    -0.05500
Br786      Br  0.08310795  0.41788376  0.55214799    -0.02500
Br787      Br  0.21352156  0.48158477  0.63387593     0.00400
Br788      Br  0.09194368  0.44332905  0.68532926    -0.04000
C789        C  0.92385576  0.53275870  0.42925124    -0.11400
C790        C  0.89675787  0.54102542  0.43691115     0.04100
C791        C  0.87579943  0.54251189  0.41688554    -0.11900
C792        C  0.88115848  0.53631563  0.38911473     0.18900
C793        C  0.90834559  0.53001196  0.38107727    -0.09000
C794        C  0.92934557  0.52832283  0.40098190    -0.01900
H795        H  0.85493923  0.54775830  0.42314788     0.05500
C796        C  0.85787245  0.53367865  0.36932042     0.20900
H797        H  0.94982586  0.52219952  0.39433626     0.10600
C798        C  0.85345184  0.55398532  0.34901695    -0.15300
C799        C  0.83325316  0.55038946  0.32839989     0.02000
C800        C  0.81715815  0.52592938  0.32787020    -0.10600
C801        C  0.82112838  0.50619543  0.34892619    -0.00700
C802        C  0.84112658  0.50989555  0.36945973    -0.05800
H803        H  0.86634129  0.57234596  0.34875131     0.06600
H804        H  0.80888329  0.48740174  0.34919670     0.10000
Br805      Br  0.91729857  0.52150823  0.34337710    -0.05500
Br806      Br  0.88645058  0.55069899  0.47405335    -0.02500
Br807      Br  0.83037386  0.57857804  0.30055388     0.00400
Br808      Br  0.84585096  0.48107111  0.39640932    -0.04000
C809        C  0.07508447  0.57119687  0.46760816    -0.11400
C810        C  0.07334736  0.58883848  0.44427090     0.04100
C811        C  0.09364947  0.60918929  0.44000634    -0.11900
C812        C  0.11598804  0.61192831  0.45832863     0.18900
C813        C  0.11852265  0.59342788  0.48063090    -0.09000
C814        C  0.09821725  0.57341643  0.48513163    -0.01900
H815        H  0.09152732  0.62351956  0.42287845     0.05500
C816        C  0.13473762  0.63598385  0.45633329     0.20900
H817        H  0.10024784  0.55988029  0.50291191     0.10600
C818        C  0.12719813  0.66037896  0.46996897    -0.15300
C819        C  0.14633099  0.68172486  0.47376255     0.03600
C820        C  0.17350264  0.67888486  0.46364321    -0.10600
C821        C  0.18038228  0.65537365  0.44809447    -0.00700
C822        C  0.16125095  0.63385257  0.44458694    -0.05800
H823        H  0.10677736  0.66223217  0.47889459     0.06600
H824        H  0.20114778  0.65296958  0.44016077     0.10000
Br825      Br  0.14861347  0.59581517  0.50648793    -0.05500
Br826      Br  0.04285547  0.58789564  0.41883157    -0.02500
Br827      Br  0.13441446  0.71416640  0.49322750     0.00400
Br828      Br  0.17267243  0.60116192  0.42539097    -0.04000
C829        C  0.96726969  0.57471895  0.57474371    -0.11400
C830        C  0.97920490  0.57347266  0.60135608     0.04100
C831        C  0.97470403  0.59484302  0.62024111    -0.11900
C832        C  0.95852493  0.61778438  0.61305882     0.18900
C833        C  0.94555120  0.61849838  0.58693078    -0.09000
C834        C  0.94974162  0.59687002  0.56806874    -0.01900
H835        H  0.98479754  0.59410598  0.64023903     0.05500
C836        C  0.95874161  0.64204976  0.63171854     0.20900
H837        H  0.94037316  0.59800443  0.54774470     0.10600
C838        C  0.97481743  0.66498135  0.62421184    -0.15300
C839        C  0.97968549  0.68645534  0.64291767     0.03600
C840        C  0.96806757  0.68541418  0.66966503    -0.10600
C841        C  0.95064604  0.66323015  0.67666036    -0.00700
C842        C  0.94623844  0.64142493  0.65802998    -0.05800
H843        H  0.98461499  0.66559975  0.60409160     0.06600
H844        H  0.94168140  0.66210924  0.69714033     0.10000
Br845      Br  0.92269534  0.64898456  0.57598189    -0.05500
Br846      Br  0.00190552  0.54301477  0.61294270    -0.02500
Br847      Br  0.00264876  0.71658518  0.63088488     0.00400
Br848      Br  0.92393323  0.61074660  0.66965911    -0.04000
C849        C  0.32626444  0.04072018  0.32465001    -0.11400
C850        C  0.32169735  0.05969431  0.34636862     0.04100
C851        C  0.34211592  0.06355603  0.36674058    -0.11900
C852        C  0.36734964  0.04928323  0.36540589     0.18900
C853        C  0.37246233  0.03172759  0.34280977    -0.09000
C854        C  0.35202522  0.02751100  0.32284130    -0.01900
H855        H  0.33788488  0.07686631  0.38424194     0.05500
C856        C  0.38631990  0.04904015  0.38948023     0.20900
H857        H  0.35599453  0.01306009  0.30619117     0.10600
C858        C  0.37994909  0.03140832  0.41158660    -0.15300
C859        C  0.39953854  0.02556226  0.43204029     0.03600
C860        C  0.42608692  0.03764361  0.43074154    -0.10600
C861        C  0.43173949  0.05703324  0.40980090    -0.00700
C862        C  0.41210366  0.06262456  0.38909370    -0.05800
H863        H  0.36012761  0.02101055  0.41214671     0.06600
H864        H  0.45193372  0.06660601  0.40862471     0.10000
Br865      Br  0.40621431  0.01115565  0.33954753    -0.05500
Br866      Br  0.28721880  0.07874973  0.35074414    -0.02500
Br867      Br  0.38897706  0.00055986  0.46110338     0.00400
Br868      Br  0.42177195  0.08756710  0.35978853    -0.04000
C869        C  0.27903001  0.08153582  0.18319203    -0.11400
C870        C  0.26391380  0.10658210  0.18388563     0.04100
C871        C  0.26676079  0.12577319  0.16240585    -0.11900
C872        C  0.28439369  0.12062354  0.14005453     0.18900
C873        C  0.30040524  0.09636084  0.13989496    -0.09000
C874        C  0.29742858  0.07693252  0.16118558    -0.01900
H875        H  0.25437495  0.14442762  0.16262639     0.05500
C876        C  0.28447705  0.14021947  0.11654316     0.20900
H877        H  0.30938752  0.05802487  0.16041023     0.10600
C878        C  0.29538709  0.16682362  0.12019098    -0.15300
C879        C  0.29349322  0.18673281  0.09918852     0.03600
C880        C  0.28029297  0.18008364  0.07386958    -0.10600
C881        C  0.27016267  0.15305287  0.07012184    -0.00700
C882        C  0.27185018  0.13335363  0.09121985    -0.05800
H883        H  0.30508350  0.17223910  0.13968812     0.06600
H884        H  0.25955571  0.14750244  0.05115147     0.10000
Br885      Br  0.32658012  0.08903265  0.11105632    -0.05500
Br886      Br  0.23707461  0.11499205  0.21194379    -0.02500
Br887      Br  0.30971931  0.22225363  0.10655435     0.00400
Br888      Br  0.25447762  0.09812637  0.08525261    -0.04000
C889        C  0.22495522  0.92708405  0.32382943    -0.11400
C890        C  0.20162645  0.92676669  0.34131375     0.04100
C891        C  0.19823461  0.90516937  0.36041803    -0.11900
C892        C  0.21792744  0.88395206  0.36254453     0.18900
C893        C  0.24094822  0.88410203  0.34478297    -0.09000
C894        C  0.24423756  0.90547241  0.32571228    -0.01900
H895        H  0.18059568  0.90529490  0.37417205     0.05500
C896        C  0.21531939  0.86257564  0.38426845     0.20900
H897        H  0.26225574  0.90535706  0.31246125     0.10600
C898        C  0.21192195  0.83485911  0.37658026    -0.15300
C899        C  0.21415610  0.81355700  0.39607836     0.03600
C900        C  0.21955447  0.82000748  0.42422549    -0.10600
C901        C  0.22088054  0.84805978  0.43196371    -0.00700
C902        C  0.21903802  0.86917209  0.41233610    -0.05800
H903        H  0.20874029  0.82971669  0.35497213     0.06600
H904        H  0.22481485  0.85379182  0.45327708     0.10000
Br905      Br  0.26947113  0.85654654  0.34674692    -0.05500
Br906      Br  0.17519739  0.95629488  0.34179143    -0.02500
Br907      Br  0.21044977  0.77655873  0.38200100     0.00400
Br908      Br  0.22433204  0.90651130  0.42470522    -0.04000
C909        C  0.32660527  0.93111687  0.22141845    -0.11400
C910        C  0.32357293  0.90412863  0.23215324     0.04100
C911        C  0.34450902  0.88460176  0.22838241    -0.11900
C912        C  0.36885069  0.89155619  0.21433438     0.18900
C913        C  0.37161904  0.91819198  0.20282122    -0.09000
C914        C  0.35040505  0.93769749  0.20615377    -0.01900
H915        H  0.34223855  0.86419431  0.23732635     0.05500
C916        C  0.39194064  0.87151193  0.21457144     0.20900
H917        H  0.35311147  0.95838967  0.19803992     0.10600
C918        C  0.39276634  0.85004504  0.19507883    -0.15300
C919        C  0.41248399  0.82882327  0.19716129     0.03600
C920        C  0.43176227  0.82893824  0.21918313    -0.10600
C921        C  0.43121915  0.85102349  0.23811606    -0.00700
C922        C  0.41155435  0.87202786  0.23603626    -0.05800
H923        H  0.37739936  0.84928959  0.17875960     0.06600
H924        H  0.44577821  0.85162250  0.25517256     0.10000
Br925      Br  0.40463865  0.92910521  0.18382938    -0.05500
Br926      Br  0.29127026  0.89289968  0.25233020    -0.02500
Br927      Br  0.41019371  0.79911031  0.17098814     0.00400
Br928      Br  0.41117647  0.90015717  0.26402645    -0.04000
C929        C  0.92948134  0.82968626  0.71798705    -0.11400
C930        C  0.93236905  0.85776816  0.72596800     0.04100
C931        C  0.91009661  0.87596822  0.72288887    -0.11900
C932        C  0.88472392  0.86689852  0.71228164     0.18900
C933        C  0.88198242  0.83940272  0.70339410    -0.09000
C934        C  0.90423099  0.82112645  0.70614737    -0.01900
H935        H  0.91213180  0.89709201  0.73013144     0.05500
C936        C  0.86063077  0.88553296  0.71413306     0.20900
H937        H  0.90141430  0.79984282  0.69972689     0.10600
C938        C  0.85592493  0.90554509  0.69364097    -0.15300
C939        C  0.83505673  0.92546968  0.69677931     0.03600
C940        C  0.81882507  0.92573308  0.72115567    -0.10600
C941        C  0.82302323  0.90472160  0.74092737    -0.00700
C942        C  0.84360346  0.88486357  0.73761378    -0.05800
H943        H  0.86902576  0.90608949  0.67546251     0.06600
H944        H  0.81061663  0.90402818  0.75958006     0.10000
Br945      Br  0.84773665  0.82568743  0.68878307    -0.05500
Br946      Br  0.96475371  0.87251724  0.74376076    -0.02500
Br947      Br  0.83124762  0.95241085  0.66782362     0.00400
Br948      Br  0.84863157  0.85799264  0.76647421    -0.04000
C949        C  0.56872954  0.17627265  0.77891001    -0.11400
C950        C  0.59429825  0.17706405  0.76479480     0.04100
C951        C  0.61356783  0.15589572  0.76876865    -0.11900
C952        C  0.60812041  0.13384088  0.78680977     0.18900
C953        C  0.58331210  0.13374556  0.80202735    -0.09000
C954        C  0.56366258  0.15459618  0.79765213    -0.01900
H955        H  0.63266597  0.15622304  0.75708332     0.05500
C956        C  0.62839307  0.11091854  0.78838181     0.20900
H957        H  0.54435693  0.15389903  0.80896505     0.10600
C958        C  0.65489790  0.11619398  0.79889030    -0.15300
C959        C  0.67590634  0.09635361  0.79716554     0.03600
C960        C  0.67062440  0.07054112  0.78434920    -0.10600
C961        C  0.64358740  0.06493903  0.77504417    -0.00700
C962        C  0.62268929  0.08484685  0.77673664    -0.05800
H963        H  0.65943882  0.13619523  0.80795752     0.06600
H964        H  0.63891333  0.04545035  0.76500673     0.10000
Br965      Br  0.57574911  0.10599035  0.82938493    -0.05500
Br966      Br  0.60339149  0.20507896  0.73803874    -0.02500
Br967      Br  0.71103320  0.10608190  0.81301676     0.00400
Br968      Br  0.58747011  0.07625636  0.76047538    -0.04000
C969        C  0.67765739  0.96815605  0.67656440    -0.11400
C970        C  0.65296416  0.95319270  0.68154929     0.04100
C971        C  0.63333949  0.95018167  0.66037502    -0.11900
C972        C  0.63778353  0.96167718  0.63410867     0.18900
C973        C  0.66266455  0.97576493  0.62881144    -0.09000
C974        C  0.68239857  0.97860640  0.64978074    -0.01900
H975        H  0.61411732  0.93943056  0.66463043     0.05500
C976        C  0.61489203  0.96218196  0.61377807     0.20900
H977        H  0.70097867  0.99037496  0.64540419     0.10600
C978        C  0.59336901  0.98097653  0.61804439    -0.15300
C979        C  0.57262154  0.98457449  0.59825789     0.03600
C980        C  0.57274710  0.96867170  0.57374659    -0.10600
C981        C  0.59416038  0.94947242  0.56966892    -0.00700
C982        C  0.61510910  0.94609370  0.58950995    -0.05800
H983        H  0.59340198  0.99383653  0.63638981     0.06600
H984        H  0.59473195  0.93725802  0.55091200     0.10000
Br985      Br  0.66950304  0.99371344  0.59402549    -0.05500
Br986      Br  0.64463595  0.93616265  0.71649029    -0.02500
Br987      Br  0.54686610  0.01400437  0.60458044     0.00400
Br988      Br  0.64373597  0.91962237  0.58259923    -0.04000
C989        C  0.71932098  0.81969307  0.92475995    -0.11400
C990        C  0.69795638  0.83928084  0.92811571     0.04100
C991        C  0.69417999  0.86009699  0.90817849    -0.11900
C992        C  0.71102408  0.86133218  0.88460100     0.18900
C993        C  0.73125372  0.84090666  0.88053543    -0.09000
C994        C  0.73533945  0.82047736  0.90054578    -0.01900
H995        H  0.67869268  0.87591130  0.91151914     0.05500
C996        C  0.70989294  0.88566310  0.86610109     0.20900
H997        H  0.75165608  0.80545218  0.89746108     0.10600
C998        C  0.72578043  0.90887425  0.87304378    -0.15300
C999        C  0.72926119  0.93058131  0.85425536     0.03600
C1000       C  0.71643591  0.92940939  0.82801518    -0.10600
C1001       C  0.69907673  0.90694503  0.82175987    -0.00700
C1002       C  0.69598131  0.88498609  0.84050982    -0.05800
H1003       H  0.73647936  0.90955543  0.89273398     0.06600
H1004       H  0.68920685  0.90569705  0.80167629     0.10000
Br1005     Br  0.75490206  0.84105811  0.84867719    -0.05500
Br1006     Br  0.67507134  0.84020587  0.96044951    -0.02500
Br1007     Br  0.75200798  0.96119681  0.86548652     0.00400
Br1008     Br  0.67410085  0.85369954  0.82979680    -0.04000
C1009       C  0.57861281  0.06918269  0.47262134    -0.11400
C1010       C  0.60396325  0.06788679  0.48719901     0.04100
C1011       C  0.62352697  0.08902768  0.48409661    -0.11900
C1012       C  0.61839943  0.11163453  0.46667438     0.18900
C1013       C  0.59371445  0.11241380  0.45124566    -0.09000
C1014       C  0.57395104  0.09143655  0.45447848    -0.01900
H1015       H  0.64235729  0.08843842  0.49625966     0.05500
C1016       C  0.63772126  0.13540515  0.46725593     0.20900
H1017       H  0.55471961  0.09268232  0.44302301     0.10600
C1018       C  0.66279752  0.13418627  0.45277729    -0.15300
C1019       C  0.68239171  0.15550565  0.45511321     0.03600
C1020       C  0.67704637  0.17842861  0.47241681    -0.10600
C1021       C  0.65143285  0.17995391  0.48600135    -0.00700
C1022       C  0.63199757  0.15866482  0.48372399    -0.05800
H1023       H  0.66725768  0.11643415  0.43986551     0.06600
H1024       H  0.64695951  0.19723174  0.49954215     0.10000
Br1025     Br  0.58604461  0.14207389  0.42602452    -0.05500
Br1026     Br  0.61195690  0.03946854  0.51387763    -0.02500
Br1027     Br  0.71552154  0.15266870  0.43350776     0.00400
Br1028     Br  0.59860983  0.16139867  0.50494243    -0.04000
C1029       C  0.81931950  0.32917765  0.53601204    -0.11400
C1030       C  0.81960511  0.35398006  0.52051215     0.04100
C1031       C  0.84106792  0.37294687  0.52401034    -0.11900
C1032       C  0.86257646  0.36777203  0.54269965     0.18900
C1033       C  0.86162984  0.34383965  0.55934274    -0.09000
C1034       C  0.83998955  0.32476250  0.55599019    -0.01900
H1035       H  0.84141941  0.39151673  0.51145923     0.05500
C1036       C  0.88617309  0.38723464  0.54308617     0.20900
H1037       H  0.84002940  0.30589629  0.56807844     0.10600
C1038       C  0.88212093  0.41417617  0.55291353    -0.15300
C1039       C  0.90233756  0.43461916  0.54931562     0.03600
C1040       C  0.92722162  0.42821116  0.53534311    -0.10600
C1041       C  0.93162860  0.40078809  0.52671396    -0.00700
C1042       C  0.91133953  0.38049439  0.53021936    -0.05800
H1043       H  0.86272503  0.41951779  0.56276624     0.06600
H1044       H  0.95042069  0.39531124  0.51583887     0.10000
Br1045     Br  0.88970831  0.33619526  0.58632551    -0.05500
Br1046     Br  0.79119940  0.36332706  0.49427362    -0.02500
Br1047     Br  0.89448115  0.47055408  0.56424551     0.00400
Br1048     Br  0.91799403  0.34459654  0.51470554    -0.04000
C1049       C  0.71412162  0.42020092  0.31976991    -0.11400
C1050       C  0.69497170  0.42469144  0.34129445     0.04100
C1051       C  0.69251557  0.40520175  0.36271161    -0.11900
C1052       C  0.70876740  0.38118504  0.36279843     0.18900
C1053       C  0.72661385  0.37599287  0.34048599    -0.09000
C1054       C  0.72925205  0.39545126  0.31932498    -0.01900
H1055       H  0.67892780  0.40940538  0.37996858     0.05500
C1056       C  0.70982962  0.36344026  0.38765228     0.20900
H1057       H  0.74395872  0.39166628  0.30289234     0.10600
C1058       C  0.69189455  0.34076302  0.39021473    -0.15300
C1059       C  0.69533332  0.32148809  0.41170662     0.03600
C1060       C  0.71698048  0.32498593  0.43103925    -0.10600
C1061       C  0.73417263  0.34833562  0.42883084    -0.00700
C1062       C  0.73080038  0.36739263  0.40742058    -0.05800
H1063       H  0.67600767  0.33739804  0.37476962     0.06600
H1064       H  0.75089405  0.35139182  0.44342199     0.10000
Br1065     Br  0.74920993  0.34342730  0.33905374    -0.05500
Br1066     Br  0.67403749  0.45823196  0.34407794    -0.02500
Br1067     Br  0.67191798  0.28945140  0.41174537     0.00400
Br1068     Br  0.75645550  0.39764304  0.40499285    -0.04000
C1069       C  0.56599684  0.28057125  0.67658392    -0.11400
C1070       C  0.58942775  0.29728848  0.68174773     0.04100
C1071       C  0.61024020  0.29963467  0.66166155    -0.11900
C1072       C  0.60826650  0.28551266  0.63635211     0.18900
C1073       C  0.58471873  0.26916580  0.63108133    -0.09000
C1074       C  0.56375840  0.26724315  0.65084700    -0.01900
H1075       H  0.62831901  0.31216236  0.66599262     0.05500
C1076       C  0.63199363  0.28583760  0.61689563     0.20900
H1077       H  0.54624361  0.25395724  0.64658270     0.10600
C1078       C  0.65671329  0.27306726  0.62496418    -0.15300
C1079       C  0.67874284  0.27011380  0.60644066     0.03600
C1080       C  0.67626543  0.28011179  0.57895308    -0.10600
C1081       C  0.65181500  0.29397569  0.57135700    -0.00700
C1082       C  0.62996517  0.29714855  0.59009898    -0.05800
H1083       H  0.65849760  0.26439313  0.64556754     0.06600
H1084       H  0.64954664  0.30221084  0.55063121     0.10000
Br1085     Br  0.58128865  0.24676572  0.59846889    -0.05500
Br1086     Br  0.59395636  0.31783166  0.71540770    -0.02500
Br1087     Br  0.71038276  0.25008528  0.61979031     0.00400
Br1088     Br  0.59786931  0.31726699  0.57826940    -0.04000
C1089       C  0.77737189  0.07754374  0.68273646    -0.11400
C1090       C  0.76154280  0.10208013  0.68184683     0.04100
C1091       C  0.76627929  0.12162601  0.66103978    -0.11900
C1092       C  0.78658119  0.11734209  0.64086765     0.18900
C1093       C  0.80314412  0.09345440  0.64229342    -0.09000
C1094       C  0.79823745  0.07362409  0.66291981    -0.01900
H1095       H  0.75332195  0.13989185  0.65998119     0.05500
C1096       C  0.78840715  0.13722439  0.61759947     0.20900
H1097       H  0.81073140  0.05503046  0.66345072     0.10600
C1098       C  0.79812389  0.16410876  0.62248011    -0.15300
C1099       C  0.79607152  0.18467907  0.60209347     0.03600
C1100       C  0.78365774  0.17851349  0.57624764    -0.10600
C1101       C  0.77534405  0.15109769  0.57106633    -0.00700
C1102       C  0.77742519  0.13065991  0.59144425    -0.05800
H1103       H  0.80672813  0.16928359  0.64254676     0.06600
H1104       H  0.76570309  0.14573590  0.55153065     0.10000
Br1105     Br  0.83265512  0.08724653  0.61660826    -0.05500
Br1106     Br  0.73136993  0.10901133  0.70670234    -0.02500
Br1107     Br  0.81090537  0.22044817  0.61101083     0.00400
Br1108     Br  0.76256472  0.09473385  0.58336053    -0.04000
C1109       C  0.17301964  0.07045873  0.28312558    -0.11400
C1110       C  0.14856977  0.07042079  0.26704041     0.04100
C1111       C  0.12893470  0.09133849  0.27059318    -0.11900
C1112       C  0.13310649  0.11251549  0.28990805     0.18900
C1113       C  0.15682348  0.11197399  0.30679507    -0.09000
C1114       C  0.17666033  0.09119788  0.30316284    -0.01900
H1115       H  0.11081782  0.09176222  0.25736280     0.05500
C1116       C  0.11363702  0.13610759  0.29014622     0.20900
H1117       H  0.19523496  0.09150190  0.31573536     0.10600
C1118       C  0.08768822  0.13321392  0.30269521    -0.15300
C1119       C  0.06767891  0.15406850  0.30038287     0.03600
C1120       C  0.07342525  0.17824792  0.28491655    -0.10600
C1121       C  0.09995625  0.18149332  0.27345007    -0.00700
C1122       C  0.11987577  0.16067700  0.27581892    -0.05800
H1123       H  0.08283175  0.11442803  0.31397078     0.06600
H1124       H  0.10487550  0.19978116  0.26141236     0.10000
Br1125     Br  0.16310216  0.13953004  0.33458733    -0.05500
Br1126     Br  0.14206302  0.04431105  0.23779086    -0.02500
Br1127     Br  0.03332158  0.14861306  0.31943985     0.00400
Br1128     Br  0.15470520  0.16586664  0.25751793    -0.04000
C1129       C  0.93006089  0.32688618  0.21921170    -0.11400
C1130       C  0.92788976  0.35096075  0.23565154     0.04100
C1131       C  0.90655703  0.36976735  0.23090812    -0.11900
C1132       C  0.88709591  0.36524244  0.20996956     0.18900
C1133       C  0.89001710  0.34220650  0.19245232    -0.09000
C1134       C  0.91152705  0.32325807  0.19704885    -0.01900
H1135       H  0.90460102  0.38763570  0.24422899     0.05500
C1136       C  0.86281871  0.38371865  0.20885870     0.20900
H1137       H  0.91295953  0.30506300  0.18413149     0.10600
C1138       C  0.86541997  0.41015443  0.19713132    -0.15300
C1139       C  0.84466376  0.43004616  0.20070120     0.03600
C1140       C  0.82100879  0.42356809  0.21643236    -0.10600
C1141       C  0.81807689  0.39680084  0.22732249    -0.00700
C1142       C  0.83867523  0.37692874  0.22359301    -0.05800
H1143       H  0.88424300  0.41573651  0.18634112     0.06600
H1144       H  0.80005486  0.39160467  0.23958735     0.10000
Br1145     Br  0.86448858  0.33546031  0.16285289    -0.05500
Br1146     Br  0.95347270  0.35971682  0.26482723    -0.02500
Br1147     Br  0.85109678  0.46656906  0.18658235     0.00400
Br1148     Br  0.83403324  0.34150159  0.24095647    -0.04000
C1149       C  0.07283976  0.27601348  0.17783067    -0.11400
C1150       C  0.07718850  0.25540447  0.15771653     0.04100
C1151       C  0.09784248  0.25884209  0.13786586    -0.11900
C1152       C  0.11454344  0.28250801  0.13783803     0.18900
C1153       C  0.11032600  0.30312101  0.15790323    -0.09000
C1154       C  0.08961194  0.29971231  0.17786912    -0.01900
H1155       H  0.10135449  0.24268978  0.12276880     0.05500
C1156       C  0.13705075  0.28439734  0.11740155     0.20900
H1157       H  0.08660301  0.31551924  0.19342462     0.10600
C1158       C  0.13162465  0.29543094  0.09115207    -0.15300
C1159       C  0.15162384  0.29451049  0.07025856     0.03600
C1160       C  0.17764644  0.28222643  0.07560278    -0.10600
C1161       C  0.18329397  0.27238332  0.10243396    -0.00700
C1162       C  0.16320513  0.27317687  0.12313599    -0.05800
H1163       H  0.11148253  0.30422151  0.08672644     0.06600
H1164       H  0.20297709  0.26270787  0.10704482     0.10000
Br1165     Br  0.13271693  0.33583352  0.15890430    -0.05500
Br1166     Br  0.05714521  0.22110214  0.15797495    -0.02500
Br1167     Br  0.14202564  0.31064338  0.03519785     0.00400
Br1168     Br  0.17175740  0.25721966  0.15849940    -0.04000
C1169       C  0.03368053  0.42833180  0.42912804    -0.11400
C1170       C  0.04457568  0.43536823  0.40282635     0.04100
C1171       C  0.04780444  0.41491351  0.38256749    -0.11900
C1172       C  0.04063491  0.38733787  0.38793161     0.18900
C1173       C  0.03171844  0.37991629  0.41461095    -0.09000
C1174       C  0.02839559  0.40026226  0.43489848    -0.01900
H1175       H  0.05496980  0.42072064  0.36212447     0.05500
C1176       C  0.03880481  0.36747905  0.36469287     0.20900
H1177       H  0.02026764  0.39416567  0.45487975     0.10600
C1178       C  0.05846402  0.34634347  0.36165909    -0.15300
C1179       C  0.05536431  0.32599081  0.34110831     0.03600
C1180       C  0.03202453  0.32653030  0.32345020    -0.10600
C1181       C  0.01304493  0.34836301  0.32613183    -0.00700
C1182       C  0.01628438  0.36865752  0.34633160    -0.05800
H1183       H  0.07585967  0.34531010  0.37573616     0.06600
H1184       H  0.99515220  0.34942608  0.31271645     0.10000
Br1185     Br  0.02166481  0.34257796  0.42360810    -0.05500
Br1186     Br  0.05565935  0.47224327  0.39296284    -0.02500
Br1187     Br  0.08250101  0.29714289  0.33962437     0.00400
Br1188     Br  0.98842771  0.39678752  0.34895486    -0.04000
C1189       C  0.92464492  0.22170336  0.32493086    -0.11400
C1190       C  0.92459000  0.19847920  0.34277864     0.04100
C1191       C  0.90432597  0.19616462  0.36350231    -0.11900
C1192       C  0.88412338  0.21669658  0.36684435     0.18900
C1193       C  0.88386884  0.23948529  0.34882594    -0.09000
C1194       C  0.90376695  0.24171839  0.32810352    -0.01900
H1195       H  0.90484784  0.17874301  0.37762219     0.05500
C1196       C  0.86473814  0.21566383  0.39045705     0.20900
H1197       H  0.90320331  0.25970353  0.31470816     0.10600
C1198       C  0.87172652  0.22994877  0.41469340    -0.15300
C1199       C  0.85237295  0.23347253  0.43584832     0.03600
C1200       C  0.82564746  0.22206631  0.43319633    -0.10600
C1201       C  0.81909499  0.20656038  0.40954028    -0.00700
C1202       C  0.83829903  0.20368390  0.38802457    -0.05800
H1203       H  0.89191504  0.23943206  0.41660923     0.06600
H1204       H  0.79851870  0.19810147  0.40707032     0.10000
Br1205     Br  0.85740894  0.26880682  0.35256740    -0.05500
Br1206     Br  0.95277048  0.17064080  0.34166412    -0.02500
Br1207     Br  0.86331183  0.25451812  0.46772782     0.00400
Br1208     Br  0.82691368  0.18527079  0.35480656    -0.04000
C1209       C  0.82507959  0.82308012  0.03300475    -0.11400
C1210       C  0.84347708  0.82046560  0.05566179     0.04100
C1211       C  0.86389920  0.84064355  0.06007588    -0.11900
C1212       C  0.86614898  0.86352733  0.04239319     0.18900
C1213       C  0.84712152  0.86677304  0.02064704    -0.09000
C1214       C  0.82687340  0.84672985  0.01613696    -0.01900
H1215       H  0.87878498  0.83789244  0.07661316     0.05500
C1216       C  0.89047490  0.88185482  0.04396974     0.20900
H1217       H  0.81284583  0.84935826  0.99883923     0.10600
C1218       C  0.91295943  0.87589894  0.02679111    -0.15300
C1219       C  0.93395666  0.89526741  0.02275616     0.03600
C1220       C  0.93269482  0.92109432  0.03619965    -0.10600
C1221       C  0.91133640  0.92618427  0.05515972    -0.00700
C1222       C  0.89011419  0.90677978  0.05895527    -0.05800
H1223       H  0.91343138  0.85665875  0.01537743     0.06600
H1224       H  0.91022876  0.94588696  0.06568648     0.10000
Br1225     Br  0.84912188  0.89752447  0.99552175    -0.05500
Br1226     Br  0.84369832  0.78878739  0.07962062    -0.02500
Br1227     Br  0.96363249  0.88552607  0.99826476     0.00400
Br1228     Br  0.86009850  0.91585043  0.08310435    -0.04000
C1229       C  0.07456930  0.06984571  0.97331977    -0.11400
C1230       C  0.10095439  0.06793763  0.98591959     0.04100
C1231       C  0.11985153  0.08964901  0.98314242    -0.11900
C1232       C  0.11309716  0.11349105  0.96813309     0.18900
C1233       C  0.08734748  0.11501909  0.95461037    -0.09000
C1234       C  0.06824743  0.09341668  0.95747315    -0.01900
H1235       H  0.13963324  0.08837205  0.99363450     0.05500
C1236       C  0.13286080  0.13686360  0.96812177     0.20900
H1237       H  0.04824551  0.09518082  0.94749839     0.10600
C1238       C  0.15837966  0.13389064  0.95475435    -0.15300
C1239       C  0.17867149  0.15449831  0.95658072     0.03600
C1240       C  0.17345663  0.17879334  0.97193960    -0.10600
C1241       C  0.14756304  0.18193142  0.98472696    -0.00700
C1242       C  0.12755345  0.16109304  0.98331836    -0.05800
H1243       H  0.16269858  0.11517518  0.94321604     0.06600
H1244       H  0.14334031  0.20010217  0.99713325     0.10000
Br1245     Br  0.07748157  0.14615272  0.93204114    -0.05500
Br1246     Br  0.11180308  0.03774973  0.00949944    -0.02500
Br1247     Br  0.21277327  0.14830051  0.93730272     0.00400
Br1248     Br  0.09437096  0.16560741  0.00458917    -0.04000
C1249       C  0.03080923  0.92687774  0.92572746    -0.11400
C1250       C  0.01533428  0.92596541  0.90089514     0.04100
C1251       C  0.02023971  0.90515445  0.88150914    -0.11900
C1252       C  0.04034888  0.88488890  0.88618954     0.18900
C1253       C  0.05667625  0.88630586  0.91031640    -0.09000
C1254       C  0.05192312  0.90729260  0.92981910    -0.01900
H1255       H  0.00785437  0.90443999  0.86281607     0.05500
C1256       C  0.04266038  0.86206921  0.86588906     0.20900
H1257       H  0.06410305  0.90771555  0.94864157     0.10600
C1258       C  0.05367539  0.86752260  0.83960855    -0.15300
C1259       C  0.05143385  0.84813144  0.81816743     0.03600
C1260       C  0.03759905  0.82275673  0.82280101    -0.10600
C1261       C  0.02810509  0.81678132  0.84967122    -0.00700
C1262       C  0.03033808  0.83619163  0.87100770    -0.05800
H1263       H  0.06329203  0.88737920  0.83551586     0.06600
H1264       H  0.01739110  0.79750789  0.85380279     0.10000
Br1265     Br  0.08529450  0.85984419  0.91750166    -0.05500
Br1266     Br  0.98765631  0.95294471  0.89168584    -0.02500
Br1267     Br  0.06791886  0.85752605  0.78328162     0.00400
Br1268     Br  0.01389451  0.82741317  0.90605674    -0.04000
C1269       C  0.18346278  0.97284877  0.17617129    -0.11400
C1270       C  0.18268427  0.98884044  0.15165386     0.04100
C1271       C  0.16117065  0.98516027  0.13261057    -0.11900
C1272       C  0.14023536  0.96564044  0.13724625     0.18900
C1273       C  0.14164213  0.94873834  0.16097818    -0.09000
C1274       C  0.16288360  0.95270792  0.18039414    -0.01900
H1275       H  0.16033298  0.99818653  0.11437201     0.05500
C1276       C  0.11692531  0.96412478  0.11726095     0.20900
H1277       H  0.16328349  0.94006301  0.19890411     0.10600
C1278       C  0.12193136  0.95485251  0.09026262    -0.15300
C1279       C  0.10142967  0.95631110  0.06974997     0.03600
C1280       C  0.07514668  0.96757292  0.07602971    -0.10600
C1281       C  0.06997421  0.97581397  0.10350853    -0.00700
C1282       C  0.09053839  0.97439492  0.12389963    -0.05800
H1283       H  0.14217631  0.94687698  0.08497899     0.06600
H1284       H  0.05017307  0.98465702  0.10901037     0.10000
Br1285     Br  0.11535086  0.91971997  0.16738642    -0.05500
Br1286     Br  0.20885869  0.01776723  0.14391713    -0.02500
Br1287     Br  0.11095177  0.94216760  0.03391137     0.00400
Br1288     Br  0.08221598  0.98890644  0.15989671    -0.04000
C1289       C  0.92350206  0.03085085  0.93153140    -0.11400
C1290       C  0.92756441  0.05029966  0.91004564     0.04100
C1291       C  0.90709076  0.05404521  0.88968429    -0.11900
C1292       C  0.88222705  0.03904787  0.89053268     0.18900
C1293       C  0.87773631  0.02046831  0.91253753    -0.09000
C1294       C  0.89826591  0.01641811  0.93260375    -0.01900
H1295       H  0.91094672  0.06807206  0.87261266     0.05500
C1296       C  0.86276120  0.04011841  0.86671612     0.20900
H1297       H  0.89470353  0.00139327  0.94887790     0.10600
C1298       C  0.86919444  0.02490228  0.84292699    -0.15300
C1299       C  0.84990548  0.02177802  0.82153899     0.03600
C1300       C  0.82348424  0.03395622  0.82369342    -0.10600
C1301       C  0.81772770  0.05083758  0.84660937    -0.00700
C1302       C  0.83713829  0.05392553  0.86807648    -0.05800
H1303       H  0.88897962  0.01459307  0.84142364     0.06600
H1304       H  0.79765153  0.06048768  0.84850054     0.10000
Br1305     Br  0.84455674  0.99879310  0.91504725    -0.05500
Br1306     Br  0.96156853  0.07030322  0.90588317    -0.02500
Br1307     Br  0.86079131  0.00073262  0.78968798     0.00400
Br1308     Br  0.82756142  0.07636272  0.89926471    -0.04000
C1309       C  0.97197054  0.07052807  0.07703180    -0.11400
C1310       C  0.98731208  0.07016938  0.10195159     0.04100
C1311       C  0.98299268  0.09055427  0.12195374    -0.11900
C1312       C  0.96331280  0.11146667  0.11803007     0.18900
C1313       C  0.94770391  0.11169155  0.09330256    -0.09000
C1314       C  0.95228810  0.09148143  0.07297593    -0.01900
H1315       H  0.99571745  0.09055445  0.14042596     0.05500
C1316       C  0.96172647  0.13414622  0.13879005     0.20900
H1317       H  0.94030412  0.09202266  0.05402821     0.10600
C1318       C  0.96865909  0.16105971  0.13061350    -0.15300
C1319       C  0.97136645  0.18245731  0.14991008     0.03600
C1320       C  0.96771422  0.17703571  0.17860718    -0.10600
C1321       C  0.95969455  0.15015904  0.18657056    -0.00700
C1322       C  0.95652567  0.12894876  0.16702000    -0.05800
H1323       H  0.97301676  0.16527644  0.10903881     0.06600
H1324       H  0.95626334  0.14541249  0.20819346     0.10000
Br1325     Br  0.91945665  0.13870695  0.08664090    -0.05500
Br1326     Br  0.01627020  0.04388742  0.10902884    -0.02500
Br1327     Br  0.98172627  0.21781251  0.13484375     0.00400
Br1328     Br  0.94491047  0.09321003  0.17985902    -0.04000
loop_ 
_geom_bond_atom_site_label_1 
_geom_bond_atom_site_label_2 
_geom_bond_distance 
_geom_bond_site_symmetry_2 
_ccdc_geom_bond_type 
O1           C17   1.275   1_565  A
O1           Zn7   2.021       .  S
C2           O18   1.272   1_455  A
C2           O15   1.277       .  A
C2         C1249   1.485       .  S
O3           C16   1.275       .  A
O3          Cd10   2.080       .  S
O4           C22   1.276       .  A
O4          Cd13   2.086   1_554  S
O5           C19   1.278       .  A
O5           Cd9   2.080   1_455  S
O6           C17   1.279       .  A
O6           Cd9   2.108       .  S
Zn7          O18   2.006       .  S
Zn7          O20   1.997   1_556  S
Zn7          O12   1.928   1_556  S
O8           C19   1.275       .  A
O8          Cd13   2.066   1_545  S
Cd9          O11   2.097   1_556  S
Cd9          O12   2.017   1_546  S
Cd10         O14   2.063   1_565  S
Cd10         O23   2.077   1_655  S
Cd10         O12   2.008       .  S
O11          C21   1.278       .  A
O12         Cd13   2.012   1_654  S
Cd13         O15   2.097       .  S
O14          C21   1.274       .  A
C16          O20   1.272       .  A
C16        C1220   1.472       .  S
C17        C1289   1.490       .  S
C19        C1229   1.482       .  S
C21        C1309   1.483       .  S
C22          O23   1.275       .  A
C22        C1280   1.495       .  S
O24          C40   1.271   1_655  A
O24         Zn30   1.993       .  S
C25          O41   1.270       .  A
C25          O38   1.276       .  A
C25        C1129   1.481       .  S
O26          C39   1.279       .  A
O26         Cd33   2.112       .  S
O27          C45   1.273       .  A
O27         Cd36   2.065       .  S
O28          C42   1.275       .  A
O28         Cd32   2.076       .  S
O29          C40   1.276       .  A
O29         Cd32   2.099       .  S
Zn30         O41   1.991       .  S
Zn30         O43   1.986       .  S
Zn30         O35   1.917       .  S
O31          C42   1.275       .  A
O31         Cd36   2.067   1_455  S
Cd32         O34   2.075       .  S
Cd32         O35   2.016   1_455  S
Cd33         O37   2.087   1_655  S
Cd33         O46   2.103       .  S
Cd33         O35   2.018       .  S
O34          C44   1.277       .  A
O35         Cd36   2.007       .  S
Cd36         O38   2.095       .  S
O37          C44   1.278       .  A
C39          O43   1.272       .  A
C39        C1189   1.489       .  S
C40        C1180   1.487       .  S
C42        C1149   1.471       .  S
C44        C1120   1.487       .  S
C45          O46   1.280       .  A
C45        C1320   1.498       .  S
O47          C63   1.271       .  A
O47         Zn53   1.990       .  S
C48          O64   1.269       .  A
C48          O61   1.277       .  A
C48        C1029   1.478       .  S
O49          C62   1.276       .  A
O49         Cd56   2.092       .  S
O50          C68   1.276       .  A
O50         Cd59   2.077       .  S
O51          C65   1.278       .  A
O51         Cd55   2.083       .  S
O52          C63   1.277       .  A
O52         Cd55   2.096       .  S
Zn53         O64   1.982       .  S
Zn53         O66   1.998       .  S
Zn53         O58   1.923       .  S
O54          C65   1.276       .  A
O54         Cd59   2.080       .  S
Cd55         O57   2.078       .  S
Cd55         O58   2.012       .  S
Cd56         O60   2.080       .  S
Cd56         O69   2.079       .  S
Cd56         O58   2.010       .  S
O57          C67   1.277       .  A
O58         Cd59   2.013       .  S
Cd59         O61   2.099       .  S
O60          C67   1.276       .  A
C62          O66   1.271       .  A
C62        C1200   1.475       .  S
C63        C1060   1.480       .  S
C65        C1080   1.490       .  S
C67        C1020   1.484       .  S
C68          O69   1.278       .  A
C68        C1100   1.490       .  S
O70          C86   1.272       .  A
O70         Zn76   2.002   1_545  S
C71          O87   1.272       .  A
C71          O84   1.276       .  A
C71        C1000   1.478       .  S
O72          C85   1.276       .  A
O72         Cd79   2.093       .  S
O73          C91   1.276       .  A
O73         Cd82   2.080       .  S
O74          C88   1.276       .  A
O74         Cd78   2.076       .  S
O75          C86   1.277       .  A
O75         Cd78   2.104       .  S
Zn76         O87   1.998       .  S
Zn76         O89   1.994       .  S
Zn76         O81   1.921   1_565  S
O77          C88   1.277       .  A
O77         Cd82   2.081   1_545  S
Cd78         O80   2.074       .  S
Cd78         O81   2.008       .  S
Cd79         O83   2.083   1_565  S
Cd79         O92   2.076       .  S
Cd79         O81   2.013   1_565  S
O80          C90   1.276       .  A
O81         Cd82   2.012   1_545  S
Cd82         O84   2.093       .  S
O83          C90   1.277       .  A
C85          O89   1.272       .  A
C85         C940   1.489       .  S
C86        C1300   1.483       .  S
C88         C960   1.491       .  S
C90        C1089   1.481       .  S
C91          O92   1.277       .  A
C91         C969   1.489       .  S
O93         C109   1.271       .  A
O93         Zn99   2.001       .  S
C94         O110   1.274       .  A
C94         O107   1.276       .  A
C94         C849   1.482       .  S
O95         C108   1.276       .  A
O95        Cd102   2.087       .  S
O96         C114   1.276       .  A
O96        Cd105   2.076       .  S
O97         C111   1.277       .  A
O97        Cd101   2.075   1_545  S
O98         C109   1.277       .  A
O98        Cd101   2.100       .  S
Zn99        O110   2.010   1_565  S
Zn99        O112   1.992       .  S
Zn99        O104   1.924   1_565  S
O100        C111   1.275       .  A
O100       Cd105   2.069       .  S
Cd101       O103   2.080       .  S
Cd101       O104   2.011   1_565  S
Cd102       O106   2.079       .  S
Cd102       O115   2.077   1_565  S
Cd102       O104   2.011   1_565  S
O103        C113   1.276       .  A
O104       Cd105   2.009       .  S
Cd105       O107   2.092       .  S
O106        C113   1.276       .  A
C108        O112   1.272       .  A
C108        C889   1.477       .  S
C109        C909   1.478       .  S
C111        C869   1.482       .  S
C113       C1269   1.484       .  S
C114        O115   1.275       .  A
C114       C1109   1.481       .  S
O116        C132   1.275       .  A
O116       Zn122   2.009       .  S
C117        O133   1.273   1_655  A
C117        O130   1.275       .  A
C117        C829   1.476       .  S
O118        C131   1.275       .  A
O118       Cd125   2.090       .  S
O119        C137   1.275       .  A
O119       Cd128   2.074       .  S
O120        C134   1.279       .  A
O120       Cd124   2.093   1_655  S
O121        C132   1.276       .  A
O121       Cd124   2.089       .  S
Zn122       O133   2.008       .  S
Zn122       O135   2.003       .  S
Zn122       O127   1.929   1_455  S
O123        C134   1.274       .  A
O123       Cd128   2.071       .  S
Cd124       O126   2.081       .  S
Cd124       O127   2.011   1_455  S
Cd125       O129   2.081       .  S
Cd125       O138   2.071   1_455  S
Cd125       O127   2.012   1_455  S
O126        C136   1.276       .  A
O127       Cd128   2.007       .  S
Cd128       O130   2.087       .  S
O129        C136   1.278       .  A
C131        O135   1.273       .  A
C131        C769   1.487       .  S
C132        C809   1.485       .  S
C134        C789   1.495       .  S
C136       C1169   1.491       .  S
C137        O138   1.276       .  A
C137       C1040   1.486       .  S
O139        C155   1.272       .  A
O139       Zn145   1.990       .  S
C140        O156   1.272       .  A
C140        O153   1.276       .  A
C140        C729   1.480       .  S
O141        C154   1.277       .  A
O141       Cd148   2.087       .  S
O142        C160   1.277       .  A
O142       Cd151   2.080       .  S
O143        C157   1.275       .  A
O143       Cd147   2.067       .  S
O144        C155   1.275       .  A
O144       Cd147   2.093       .  S
Zn145       O156   2.001       .  S
Zn145       O158   1.995       .  S
Zn145       O150   1.920       .  S
O146        C157   1.276       .  A
O146       Cd151   2.078       .  S
Cd147       O149   2.072       .  S
Cd147       O150   2.006       .  S
Cd148       O152   2.083       .  S
Cd148       O161   2.072       .  S
Cd148       O150   2.009       .  S
O149        C159   1.276       .  A
O150       Cd151   2.013       .  S
Cd151       O153   2.094       .  S
O152        C159   1.276       .  A
C154        O158   1.271       .  A
C154        C689   1.485       .  S
C155        C749   1.485       .  S
C157        C709   1.477       .  S
C159       C1069   1.486       .  S
C160        O161   1.275       .  A
C160        C949   1.481       .  S
O162        C178   1.272       .  A
O162       Zn168   2.002       .  S
C163        O179   1.272       .  A
C163        O176   1.275       .  A
C163        C989   1.481       .  S
O164        C177   1.276       .  A
O164       Cd171   2.087       .  S
O165        C183   1.275       .  A
O165       Cd174   2.075   1_554  S
O166        C180   1.276       .  A
O166       Cd170   2.081       .  S
O167        C178   1.278       .  A
O167       Cd170   2.101       .  S
Zn168       O179   2.001       .  S
Zn168       O181   2.008       .  S
Zn168       O173   1.927       .  S
O169        C180   1.277       .  A
O169       Cd174   2.071       .  S
Cd170       O172   2.082   1_556  S
Cd170       O173   2.013       .  S
Cd171       O175   2.078       .  S
Cd171       O184   2.076       .  S
Cd171       O173   2.010   1_554  S
O172        C182   1.276       .  A
O173       Cd174   2.010       .  S
Cd174       O176   2.091       .  S
O175        C182   1.276       .  A
C177        O181   1.274   1_554  A
C177       C1209   1.484       .  S
C178        C669   1.481       .  S
C180        C609   1.488       .  S
C182        C660   1.488       .  S
C183        O184   1.276       .  A
C183        C629   1.484       .  S
O185        C201   1.272       .  A
O185       Zn191   1.999       .  S
C186        O202   1.271       .  A
C186        O199   1.275       .  A
C186        C580   1.473       .  S
O187        C200   1.276       .  A
O187       Cd194   2.087       .  S
O188        C206   1.273       .  A
O188       Cd197   2.065   1_554  S
O189        C203   1.275       .  A
O189       Cd193   2.072       .  S
O190        C201   1.276       .  A
O190       Cd193   2.093       .  S
Zn191       O202   1.986       .  S
Zn191       O204   2.001       .  S
Zn191       O196   1.920       .  S
O192        C203   1.276       .  A
O192       Cd197   2.075       .  S
Cd193       O195   2.074   1_556  S
Cd193       O196   2.007       .  S
Cd194       O198   2.068       .  S
Cd194       O207   2.072       .  S
Cd194       O196   2.007   1_554  S
O195        C205   1.277       .  A
O196       Cd197   2.008       .  S
Cd197       O199   2.086       .  S
O198        C205   1.274       .  A
C200        O204   1.272   1_554  A
C200        C589   1.480       .  S
C201        C740   1.481       .  S
C203       C1240   1.483       .  S
C205        C880   1.486       .  S
C206        O207   1.276       .  A
C206       C1160   1.483       .  S
O208        C224   1.271       .  A
O208       Zn214   1.994       .  S
C209        O225   1.272       .  A
C209        O222   1.275       .  A
C209       C1140   1.476       .  S
O210        C223   1.277       .  A
O210       Cd217   2.094       .  S
O211        C229   1.275       .  A
O211       Cd220   2.075       .  S
O212        C226   1.276       .  A
O212       Cd216   2.070       .  S
O213        C224   1.275       .  A
O213       Cd216   2.089       .  S
Zn214       O225   2.005       .  S
Zn214       O227   2.007       .  S
Zn214       O219   1.927       .  S
O215        C226   1.275       .  A
O215       Cd220   2.075       .  S
Cd216       O218   2.066       .  S
Cd216       O219   2.010       .  S
Cd217       O221   2.081       .  S
Cd217       O230   2.088       .  S
Cd217       O219   2.012       .  S
O218        C228   1.275       .  A
O219       Cd220   2.007       .  S
Cd220       O222   2.086       .  S
O221        C228   1.276       .  A
C223        O227   1.274       .  A
C223        C800   1.488       .  S
C224       C1049   1.476       .  S
C226        C529   1.486       .  S
C228        C560   1.478       .  S
C229        O230   1.278       .  A
C229        C649   1.487       .  S
O231        C247   1.272       .  A
O231       Zn237   2.006       .  S
C232        O248   1.273       .  A
C232        O245   1.277       .  A
C232        C860   1.480       .  S
O233        C246   1.277       .  A
O233       Cd240   2.093       .  S
O234        C252   1.278       .  A
O234       Cd243   2.085       .  S
O235        C249   1.274       .  A
O235       Cd239   2.071   1_545  S
O236        C247   1.276       .  A
O236       Cd239   2.087       .  S
Zn237       O248   2.006   1_565  S
Zn237       O250   2.013       .  S
Zn237       O242   1.926       .  S
O238        C249   1.278       .  A
O238       Cd243   2.085       .  S
Cd239       O241   2.072       .  S
Cd239       O242   2.006       .  S
Cd240       O244   2.080       .  S
Cd240       O253   2.076   1_565  S
Cd240       O242   2.010       .  S
O241        C251   1.275       .  A
O242       Cd243   2.011   1_565  S
Cd243       O245   2.096       .  S
O244        C251   1.276       .  A
C246        O250   1.274       .  A
C246        C500   1.481       .  S
C247        C509   1.484       .  S
C249        C720   1.492       .  S
C251        C980   1.481       .  S
C252        O253   1.276       .  A
C252       C1009   1.482       .  S
O254        C270   1.272   1_455  A
O254       Zn260   2.002       .  S
C255        O271   1.272       .  A
C255        O268   1.276       .  A
C255        C460   1.479       .  S
O256        C269   1.276       .  A
O256       Cd263   2.083       .  S
O257        C275   1.277       .  A
O257       Cd266   2.083       .  S
O258        C272   1.277       .  A
O258       Cd262   2.073       .  S
O259        C270   1.276       .  A
O259       Cd262   2.092       .  S
Zn260       O271   2.002       .  S
Zn260       O273   2.007       .  S
Zn260       O265   1.930       .  S
O261        C272   1.276       .  A
O261       Cd266   2.079   1_655  S
Cd262       O264   2.079       .  S
Cd262       O265   2.010   1_655  S
Cd263       O267   2.079   1_455  S
Cd263       O276   2.076       .  S
Cd263       O265   2.009       .  S
O264        C274   1.275       .  A
O265       Cd266   2.013       .  S
Cd266       O268   2.097       .  S
O267        C274   1.276       .  A
C269        O273   1.273       .  A
C269        C480   1.479       .  S
C270        C840   1.478       .  S
C272        C929   1.490       .  S
C274        C680   1.489       .  S
C275        O276   1.276       .  A
C275       C1260   1.488       .  S
O277        C293   1.272       .  A
O277       Zn283   1.993       .  S
C278        O294   1.272       .  A
C278        O291   1.277       .  A
C278        C440   1.487       .  S
O279        C292   1.277       .  A
O279       Cd286   2.101       .  S
O280        C298   1.277       .  A
O280       Cd289   2.078       .  S
O281        C295   1.277       .  A
O281       Cd285   2.085       .  S
O282        C293   1.278       .  A
O282       Cd285   2.100       .  S
Zn283       O294   1.994       .  S
Zn283       O296   1.994       .  S
Zn283       O288   1.917       .  S
O284        C295   1.276       .  A
O284       Cd289   2.074       .  S
Cd285       O287   2.074       .  S
Cd285       O288   2.014       .  S
Cd286       O290   2.082       .  S
Cd286       O299   2.073       .  S
Cd286       O288   2.013       .  S
O287        C297   1.275       .  A
O288       Cd289   2.011       .  S
Cd289       O291   2.105       .  S
O290        C297   1.277       .  A
C292        O296   1.272       .  A
C292        C489   1.487       .  S
C293        C920   1.486       .  S
C295        C420   1.487       .  S
C297        C640   1.485       .  S
C298        O299   1.275       .  A
C298        C549   1.487       .  S
O300        C316   1.273       .  A
O300       Zn306   2.011       .  S
C301        O317   1.273       .  A
C301        O314   1.275       .  A
C301        C820   1.476       .  S
O302        C315   1.276       .  A
O302       Cd309   2.083       .  S
O303        C321   1.276       .  A
O303       Cd312   2.076       .  S
O304        C318   1.276       .  A
O304       Cd308   2.065       .  S
O305        C316   1.275       .  A
O305       Cd308   2.085       .  S
Zn306       O317   2.011       .  S
Zn306       O319   2.000       .  S
Zn306       O311   1.926       .  S
O307        C318   1.273       .  A
O307       Cd312   2.066       .  S
Cd308       O310   2.073       .  S
Cd308       O311   2.003       .  S
Cd309       O313   2.079       .  S
Cd309       O322   2.081       .  S
Cd309       O311   2.007       .  S
O310        C320   1.276       .  A
O311       Cd312   2.006       .  S
Cd312       O314   2.084       .  S
O313        C320   1.275       .  A
C315        O319   1.274       .  A
C315        C389   1.482       .  S
C316        C449   1.481       .  S
C318        C900   1.489       .  S
C320        C520   1.491       .  S
C321        O322   1.275       .  A
C321        C429   1.489       .  S
O323        C339   1.274       .  A
O323       Zn329   2.011       .  S
C324        O340   1.274       .  A
C324        O337   1.275       .  A
C324        C369   1.478       .  S
O325        C338   1.275       .  A
O325       Cd332   2.074       .  S
O326        C344   1.276       .  A
O326       Cd335   2.077       .  S
O327        C341   1.276       .  A
O327       Cd331   2.068       .  S
O328        C339   1.274       .  A
O328       Cd331   2.078       .  S
Zn329       O340   2.013       .  S
Zn329       O342   2.011       .  S
Zn329       O334   1.925       .  S
O330        C341   1.274       .  A
O330       Cd335   2.069       .  S
Cd331       O333   2.073       .  S
Cd331       O334   2.002       .  S
Cd332       O336   2.077       .  S
Cd332       O345   2.064       .  S
Cd332       O334   2.001       .  S
O333        C343   1.273       .  A
O334       Cd335   2.004       .  S
Cd335       O337   2.083       .  S
O336        C343   1.276       .  A
C338        O342   1.274       .  A
C338        C569   1.474       .  S
C339        C760   1.474       .  S
C341        C400   1.483       .  S
C343        C780   1.495       .  S
C344        O345   1.275       .  A
C344        C469   1.481       .  S
O346        C362   1.270       .  A
O346       Zn352   1.989       .  S
C347        O363   1.270   1_554  A
C347        O360   1.277       .  A
C347        C600   1.477       .  S
O348        C361   1.276       .  A
O348       Cd355   2.093       .  S
O349        C367   1.277       .  A
O349       Cd358   2.083       .  S
O350        C364   1.274       .  A
O350       Cd354   2.065   1_554  S
O351        C362   1.275       .  A
O351       Cd354   2.087       .  S
Zn352       O363   1.989       .  S
Zn352       O365   1.984       .  S
Zn352       O357   1.919       .  S
O353        C364   1.278       .  A
O353       Cd358   2.084       .  S
Cd354       O356   2.079       .  S
Cd354       O357   2.006       .  S
Cd355       O359   2.077       .  S
Cd355       O368   2.075   1_556  S
Cd355       O357   2.009       .  S
O356        C366   1.276       .  A
O357       Cd358   2.013   1_556  S
Cd358       O360   2.099       .  S
O359        C366   1.277       .  A
C361        O365   1.270       .  A
C361        C380   1.476       .  S
C362        C700   1.467       .  S
C364        C540   1.481       .  S
C366        C620   1.485       .  S
C367        O368   1.276       .  A
C367        C409   1.482       .  S
C369        C370   1.411       .  A
C369        C374   1.405       .  A
C370        C371   1.401       .  A
C370       Br386   1.919       .  S
C371        C372   1.403       .  A
C371        H375   1.084       .  S
C372        C376   1.477       .  S
C372        C373   1.407       .  A
C373        C374   1.398       .  A
C373       Br385   1.920       .  S
C374        H377   1.084       .  S
C376        C378   1.399       .  A
C376        C382   1.408       .  A
C378        C379   1.394       .  A
C378        H383   1.083       .  S
C379        C380   1.413       .  A
C379       Br387   1.923       .  S
C380        C381   1.406       .  A
C381        C382   1.404       .  A
C381        H384   1.082       .  S
C382       Br388   1.917       .  S
C389        C390   1.415       .  A
C389        C394   1.407       .  A
C390        C391   1.402       .  A
C390       Br406   1.920       .  S
C391        C392   1.401       .  A
C391        H395   1.084       .  S
C392        C396   1.473       .  S
C392        C393   1.404       .  A
C393        C394   1.394       .  A
C393       Br405   1.920       .  S
C394        H397   1.084       .  S
C396        C398   1.399       .  A
C396        C402   1.404       .  A
C398        C399   1.397       .  A
C398        H403   1.085       .  S
C399        C400   1.417       .  A
C399       Br407   1.923       .  S
C400        C401   1.408       .  A
C401        C402   1.399       .  A
C401        H404   1.084       .  S
C402       Br408   1.917       .  S
C409        C410   1.412       .  A
C409        C414   1.406       .  A
C410        C411   1.403       .  A
C410       Br426   1.919       .  S
C411        C412   1.403       .  A
C411        H415   1.084       .  S
C412        C416   1.480       .  S
C412        C413   1.407       .  A
C413        C414   1.399       .  A
C413       Br425   1.919       .  S
C414        H417   1.084       .  S
C416        C418   1.399       .  A
C416        C422   1.407       .  A
C418        C419   1.398       .  A
C418        H423   1.084       .  S
C419        C420   1.417       .  A
C419       Br427   1.923       .  S
C420        C421   1.408       .  A
C421        C422   1.404       .  A
C421        H424   1.083       .  S
C422       Br428   1.917       .  S
C429        C430   1.418       .  A
C429        C434   1.409       .  A
C430        C431   1.401       .  A
C430       Br446   1.923       .  S
C431        C432   1.400       .  A
C431        H435   1.085       .  S
C432        C436   1.481       .  S
C432        C433   1.406       .  A
C433        C434   1.402       .  A
C433       Br445   1.917       .  S
C434        H437   1.084       .  S
C436        C438   1.404       .  A
C436        C442   1.405       .  A
C438        C439   1.406       .  A
C438        H443   1.085       .  S
C439        C440   1.414       .  A
C439       Br447   1.918       .  S
C440        C441   1.407       .  A
C441        C442   1.395       .  A
C441        H444   1.085       .  S
C442       Br448   1.920       .  S
C449        C450   1.413       .  A
C449        C454   1.407       .  A
C450        C451   1.397       .  A
C450       Br466   1.922       .  S
C451        C452   1.401       .  A
C451        H455   1.083       .  S
C452        C456   1.480       .  S
C452        C453   1.408       .  A
C453        C454   1.404       .  A
C453       Br465   1.917       .  S
C454        H457   1.082       .  S
C456        C458   1.404       .  A
C456        C462   1.407       .  A
C458        C459   1.405       .  A
C458        H463   1.083       .  S
C459        C460   1.411       .  A
C459       Br467   1.918       .  S
C460        C461   1.404       .  A
C461        C462   1.397       .  A
C461        H464   1.084       .  S
C462       Br468   1.920       .  S
C469        C470   1.413       .  A
C469        C474   1.406       .  A
C470        C471   1.402       .  A
C470       Br486   1.920       .  S
C471        C472   1.402       .  A
C471        H475   1.085       .  S
C472        C476   1.476       .  S
C472        C473   1.405       .  A
C473        C474   1.396       .  A
C473       Br485   1.919       .  S
C474        H477   1.084       .  S
C476        C478   1.400       .  A
C476        C482   1.407       .  A
C478        C479   1.397       .  A
C478        H483   1.083       .  S
C479        C480   1.413       .  A
C479       Br487   1.922       .  S
C480        C481   1.406       .  A
C481        C482   1.401       .  A
C481        H484   1.083       .  S
C482       Br488   1.918       .  S
C489        C490   1.415       .  A
C489        C494   1.407       .  A
C490        C491   1.406       .  A
C490       Br506   1.919       .  S
C491        C492   1.404       .  A
C491        H495   1.083       .  S
C492        C496   1.480       .  S
C492        C493   1.405       .  A
C493        C494   1.395       .  A
C493       Br505   1.920       .  S
C494        H497   1.084       .  S
C496        C498   1.402       .  A
C496        C502   1.407       .  A
C498        C499   1.399       .  A
C498        H503   1.083       .  S
C499        C500   1.412       .  A
C499       Br507   1.921       .  S
C500        C501   1.406       .  A
C501        C502   1.403       .  A
C501        H504   1.083       .  S
C502       Br508   1.917       .  S
C509        C510   1.416       .  A
C509        C514   1.408       .  A
C510        C511   1.397       .  A
C510       Br526   1.923       .  S
C511        C512   1.399       .  A
C511        H515   1.083       .  S
C512        C516   1.478       .  S
C512        C513   1.407       .  A
C513        C514   1.403       .  A
C513       Br525   1.917       .  S
C514        H517   1.082       .  S
C516        C518   1.401       .  A
C516        C522   1.405       .  A
C518        C519   1.403       .  A
C518        H523   1.085       .  S
C519        C520   1.418       .  A
C519       Br527   1.921       .  S
C520        C521   1.409       .  A
C521        C522   1.397       .  A
C521        H524   1.084       .  S
C522       Br528   1.920       .  S
C529        C530   1.417       .  A
C529        C534   1.408       .  A
C530        C531   1.399       .  A
C530       Br546   1.923       .  S
C531        C532   1.400       .  A
C531        H535   1.084       .  S
C532        C536   1.478       .  S
C532        C533   1.406       .  A
C533        C534   1.400       .  A
C533       Br545   1.918       .  S
C534        H537   1.083       .  S
C536        C538   1.402       .  A
C536        C542   1.408       .  A
C538        C539   1.401       .  A
C538        H543   1.084       .  S
C539        C540   1.414       .  A
C539       Br547   1.921       .  S
C540        C541   1.405       .  A
C541        C542   1.398       .  A
C541        H544   1.084       .  S
C542       Br548   1.920       .  S
C549        C550   1.418       .  A
C549        C554   1.408       .  A
C550        C551   1.399       .  A
C550       Br566   1.923       .  S
C551        C552   1.399       .  A
C551        H555   1.084       .  S
C552        C556   1.478       .  S
C552        C553   1.406       .  A
C553        C554   1.401       .  A
C553       Br565   1.918       .  S
C554        H557   1.084       .  S
C556        C558   1.403       .  A
C556        C562   1.407       .  A
C558        C559   1.402       .  A
C558        H563   1.085       .  S
C559        C560   1.411       .  A
C559       Br567   1.919       .  S
C560        C561   1.405       .  A
C561        C562   1.397       .  A
C561        H564   1.085       .  S
C562       Br568   1.920       .  S
C569        C570   1.411       .  A
C569        C574   1.404       .  A
C570        C571   1.398       .  A
C570       Br586   1.921       .  S
C571        C572   1.402       .  A
C571        H575   1.083       .  S
C572        C576   1.475       .  S
C572        C573   1.406       .  A
C573        C574   1.399       .  A
C573       Br585   1.918       .  S
C574        H577   1.083       .  S
C576        C578   1.403       .  A
C576        C582   1.407       .  A
C578        C579   1.403       .  A
C578        H583   1.083       .  S
C579        C580   1.411       .  A
C579       Br587   1.919       .  S
C580        C581   1.403       .  A
C581        C582   1.393       .  A
C581        H584   1.084       .  S
C582       Br588   1.921       .  S
C589        C590   1.412       .  A
C589        C594   1.406       .  A
C590        C591   1.403       .  A
C590       Br606   1.919       .  S
C591        C592   1.403       .  A
C591        H595   1.084       .  S
C592        C596   1.478       .  S
C592        C593   1.406       .  A
C593        C594   1.397       .  A
C593       Br605   1.920   1_554  S
C594        H597   1.084   1_554  S
C596        C598   1.400       .  A
C596        C602   1.408       .  A
C598        C599   1.396       .  A
C598        H603   1.083       .  S
C599        C600   1.413       .  A
C599       Br607   1.922   1_554  S
C600        C601   1.405       .  A
C601        C602   1.404       .  A
C601        H604   1.082       .  S
C602       Br608   1.917       .  S
C609        C610   1.416       .  A
C609        C614   1.407       .  A
C610        C611   1.403       .  A
C610       Br626   1.921       .  S
C611        C612   1.403       .  A
C611        H615   1.085       .  S
C612        C616   1.481       .  S
C612        C613   1.407       .  A
C613        C614   1.397       .  A
C613       Br625   1.920       .  S
C614        H617   1.084       .  S
C616        C618   1.400       .  A
C616        C622   1.408       .  A
C618        C619   1.399       .  A
C618        H623   1.084       .  S
C619        C620   1.416       .  A
C619       Br627   1.922   1_556  S
C620        C621   1.407       .  A
C621        C622   1.402       .  A
C621        H624   1.084       .  S
C622       Br628   1.919       .  S
C629        C630   1.414       .  A
C629        C634   1.406       .  A
C630        C631   1.402       .  A
C630       Br646   1.919       .  S
C631        C632   1.403       .  A
C631        H635   1.084       .  S
C632        C636   1.482       .  S
C632        C633   1.409       .  A
C633        C634   1.399       .  A
C633       Br645   1.920       .  S
C634        H637   1.084       .  S
C636        C638   1.401       .  A
C636        C642   1.408       .  A
C638        C639   1.399       .  A
C638        H643   1.084       .  S
C639        C640   1.417       .  A
C639       Br647   1.923       .  S
C640        C641   1.407       .  A
C641        C642   1.402       .  A
C641        H644   1.084       .  S
C642       Br648   1.918       .  S
C649        C650   1.414       .  A
C649        C654   1.406       .  A
C650        C651   1.402       .  A
C650       Br666   1.920       .  S
C651        C652   1.403       .  A
C651        H655   1.084       .  S
C652        C656   1.485       .  S
C652        C653   1.409       .  A
C653        C654   1.401       .  A
C653       Br665   1.920       .  S
C654        H657   1.084       .  S
C656        C658   1.402       .  A
C656        C662   1.408       .  A
C658        C659   1.401       .  A
C658        H663   1.084       .  S
C659        C660   1.417       .  A
C659       Br667   1.923       .  S
C660        C661   1.408       .  A
C661        C662   1.402       .  A
C661        H664   1.084       .  S
C662       Br668   1.918       .  S
C669        C670   1.410       .  A
C669        C674   1.404       .  A
C670        C671   1.405       .  A
C670       Br686   1.918       .  S
C671        C672   1.407       .  A
C671        H675   1.084       .  S
C672        C676   1.486       .  S
C672        C673   1.409       .  A
C673        C674   1.397       .  A
C673       Br685   1.920       .  S
C674        H677   1.085       .  S
C676        C678   1.404       .  A
C676        C682   1.409       .  A
C678        C679   1.403       .  A
C678        H683   1.085       .  S
C679        C680   1.415       .  A
C679       Br687   1.920       .  S
C680        C681   1.407       .  A
C681        C682   1.400       .  A
C681        H684   1.084       .  S
C682       Br688   1.920       .  S
C689        C690   1.418       .  A
C689        C694   1.408       .  A
C690        C691   1.396       .  A
C690       Br706   1.924       .  S
C691        C692   1.399       .  A
C691        H695   1.083       .  S
C692        C696   1.476       .  S
C692        C693   1.406       .  A
C693        C694   1.401       .  A
C693       Br705   1.917       .  S
C694        H697   1.083       .  S
C696        C698   1.404       .  A
C696        C702   1.408       .  A
C698        C699   1.401       .  A
C698        H703   1.083       .  S
C699        C700   1.408       .  A
C699       Br707   1.919       .  S
C700        C701   1.402       .  A
C701        C702   1.397       .  A
C701        H704   1.084       .  S
C702       Br708   1.919       .  S
C709        C710   1.411       .  A
C709        C714   1.404       .  A
C710        C711   1.396       .  A
C710       Br726   1.922       .  S
C711        C712   1.403       .  A
C711        H715   1.084       .  S
C712        C716   1.488       .  S
C712        C713   1.412       .  A
C713        C714   1.403       .  A
C713       Br725   1.919       .  S
C714        H717   1.084       .  S
C716        C718   1.402       .  A
C716        C722   1.410       .  A
C718        C719   1.400       .  A
C718        H723   1.083       .  S
C719        C720   1.419       .  A
C719       Br727   1.921       .  S
C720        C721   1.408       .  A
C721        C722   1.399       .  A
C721        H724   1.083       .  S
C722       Br728   1.920       .  S
C729        C730   1.412       .  A
C729        C734   1.405       .  A
C730        C731   1.404       .  A
C730       Br746   1.918       .  S
C731        C732   1.404       .  A
C731        H735   1.084       .  S
C732        C736   1.478       .  S
C732        C733   1.406       .  A
C733        C734   1.396       .  A
C733       Br745   1.920       .  S
C734        H737   1.084       .  S
C736        C738   1.399       .  A
C736        C742   1.407       .  A
C738        C739   1.396       .  A
C738        H743   1.083       .  S
C739        C740   1.414       .  A
C739       Br747   1.923       .  S
C740        C741   1.407       .  A
C741        C742   1.405       .  A
C741        H744   1.082       .  S
C742       Br748   1.917       .  S
C749        C750   1.416       .  A
C749        C754   1.407       .  A
C750        C751   1.406       .  A
C750       Br766   1.919       .  S
C751        C752   1.403       .  A
C751        H755   1.083       .  S
C752        C756   1.476       .  S
C752        C753   1.404       .  A
C753        C754   1.392       .  A
C753       Br765   1.921       .  S
C754        H757   1.083       .  S
C756        C758   1.401       .  A
C756        C762   1.407       .  A
C758        C759   1.396       .  A
C758        H763   1.082       .  S
C759        C760   1.410       .  A
C759       Br767   1.921       .  S
C760        C761   1.405       .  A
C761        C762   1.402       .  A
C761        H764   1.082       .  S
C762       Br768   1.917       .  S
C769        C770   1.415       .  A
C769        C774   1.407       .  A
C770        C771   1.405       .  A
C770       Br786   1.919       .  S
C771        C772   1.404       .  A
C771        H775   1.084       .  S
C772        C776   1.481       .  S
C772        C773   1.406       .  A
C773        C774   1.395       .  A
C773       Br785   1.921       .  S
C774        H777   1.083       .  S
C776        C778   1.399       .  A
C776        C782   1.405       .  A
C778        C779   1.399       .  A
C778        H783   1.084       .  S
C779        C780   1.421       .  A
C779       Br787   1.923       .  S
C780        C781   1.411       .  A
C781        C782   1.401       .  A
C781        H784   1.083       .  S
C782       Br788   1.918       .  S
C789        C790   1.421       .  A
C789        C794   1.409       .  A
C790        C791   1.402       .  A
C790       Br806   1.923       .  S
C791        C792   1.400       .  A
C791        H795   1.085       .  S
C792        C796   1.482       .  S
C792        C793   1.406       .  A
C793        C794   1.400       .  A
C793       Br805   1.919       .  S
C794        H797   1.084       .  S
C796        C798   1.404       .  A
C796        C802   1.406       .  A
C798        C799   1.405       .  A
C798        H803   1.084       .  S
C799        C800   1.416       .  A
C799       Br807   1.919       .  S
C800        C801   1.407       .  A
C801        C802   1.396       .  A
C801        H804   1.084       .  S
C802       Br808   1.920       .  S
C809        C810   1.416       .  A
C809        C814   1.406       .  A
C810        C811   1.405       .  A
C810       Br826   1.919       .  S
C811        C812   1.402       .  A
C811        H815   1.084       .  S
C812        C816   1.477       .  S
C812        C813   1.405       .  A
C813        C814   1.395       .  A
C813       Br825   1.920       .  S
C814        H817   1.084       .  S
C816        C818   1.401       .  A
C816        C822   1.408       .  A
C818        C819   1.398       .  A
C818        H823   1.083       .  S
C819        C820   1.410       .  A
C819       Br827   1.920       .  S
C820        C821   1.405       .  A
C821        C822   1.402       .  A
C821        H824   1.082       .  S
C822       Br828   1.917       .  S
C829        C830   1.410       .  A
C829        C834   1.404       .  A
C830        C831   1.397       .  A
C830       Br846   1.921   1_655  S
C831        C832   1.402       .  A
C831        H835   1.083       .  S
C832        C836   1.481       .  S
C832        C833   1.410       .  A
C833        C834   1.404       .  A
C833       Br845   1.917       .  S
C834        H837   1.082       .  S
C836        C838   1.401       .  A
C836        C842   1.409       .  A
C838        C839   1.397       .  A
C838        H843   1.083       .  S
C839        C840   1.411       .  A
C839       Br847   1.921   1_655  S
C840        C841   1.405       .  A
C841        C842   1.404       .  A
C841        H844   1.083       .  S
C842       Br848   1.918       .  S
C849        C850   1.413       .  A
C849        C854   1.404       .  A
C850        C851   1.406       .  A
C850       Br866   1.919       .  S
C851        C852   1.405       .  A
C851        H855   1.084       .  S
C852        C856   1.481       .  S
C852        C853   1.407       .  A
C853        C854   1.395       .  A
C853       Br865   1.920       .  S
C854        H857   1.084       .  S
C856        C858   1.400       .  A
C856        C862   1.409       .  A
C858        C859   1.397       .  A
C858        H863   1.083       .  S
C859        C860   1.412       .  A
C859       Br867   1.921       .  S
C860        C861   1.406       .  A
C861        C862   1.405       .  A
C861        H864   1.082       .  S
C862       Br868   1.917       .  S
C869        C870   1.416       .  A
C869        C874   1.406       .  A
C870        C871   1.398       .  A
C870       Br886   1.923       .  S
C871        C872   1.400       .  A
C871        H875   1.084       .  S
C872        C876   1.479       .  S
C872        C873   1.407       .  A
C873        C874   1.400       .  A
C873       Br885   1.918       .  S
C874        H877   1.083       .  S
C876        C878   1.401       .  A
C876        C882   1.407       .  A
C878        C879   1.401       .  A
C878        H883   1.084       .  S
C879        C880   1.417       .  A
C879       Br887   1.921       .  S
C880        C881   1.407       .  A
C881        C882   1.397       .  A
C881        H884   1.084       .  S
C882       Br888   1.921       .  S
C889        C890   1.411       .  A
C889        C894   1.405       .  A
C890        C891   1.403       .  A
C890       Br906   1.918       .  S
C891        C892   1.405       .  A
C891        H895   1.083       .  S
C892        C896   1.478       .  S
C892        C893   1.407       .  A
C893        C894   1.393       .  A
C893       Br905   1.922       .  S
C894        H897   1.083       .  S
C896        C898   1.401       .  A
C896        C902   1.405       .  A
C898        C899   1.399       .  A
C898        H903   1.085       .  S
C899        C900   1.420       .  A
C899       Br907   1.923       .  S
C900        C901   1.409       .  A
C901        C902   1.395       .  A
C901        H904   1.084       .  S
C902       Br908   1.920       .  S
C909        C910   1.411       .  A
C909        C914   1.404       .  A
C910        C911   1.398       .  A
C910       Br926   1.921       .  S
C911        C912   1.401       .  A
C911        H915   1.082       .  S
C912        C916   1.480       .  S
C912        C913   1.409       .  A
C913        C914   1.405       .  A
C913       Br925   1.917       .  S
C914        H917   1.082       .  S
C916        C918   1.404       .  A
C916        C922   1.405       .  A
C918        C919   1.405       .  A
C918        H923   1.084       .  S
C919        C920   1.414       .  A
C919       Br927   1.919       .  S
C920        C921   1.408       .  A
C921        C922   1.396       .  A
C921        H924   1.084       .  S
C922       Br928   1.920       .  S
C929        C930   1.419       .  A
C929        C934   1.410       .  A
C930        C931   1.400       .  A
C930       Br946   1.923       .  S
C931        C932   1.400       .  A
C931        H935   1.085       .  S
C932        C936   1.477       .  S
C932        C933   1.404       .  A
C933        C934   1.400       .  A
C933       Br945   1.918       .  S
C934        H937   1.084       .  S
C936        C938   1.402       .  A
C936        C942   1.404       .  A
C938        C939   1.405       .  A
C938        H943   1.084       .  S
C939        C940   1.417       .  A
C939       Br947   1.919       .  S
C940        C941   1.409       .  A
C941        C942   1.394       .  A
C941        H944   1.084       .  S
C942       Br948   1.920       .  S
C949        C950   1.414       .  A
C949        C954   1.406       .  A
C950        C951   1.398       .  A
C950       Br966   1.923       .  S
C951        C952   1.402       .  A
C951        H955   1.084       .  S
C952        C956   1.483       .  S
C952        C953   1.409       .  A
C953        C954   1.402       .  A
C953       Br965   1.918       .  S
C954        H957   1.084       .  S
C956        C958   1.402       .  A
C956        C962   1.408       .  A
C958        C959   1.401       .  A
C958        H963   1.085       .  S
C959        C960   1.417       .  A
C959       Br967   1.921       .  S
C960        C961   1.409       .  A
C961        C962   1.400       .  A
C961        H964   1.084       .  S
C962       Br968   1.920       .  S
C969        C970   1.417       .  A
C969        C974   1.408       .  A
C970        C971   1.402       .  A
C970       Br986   1.921       .  S
C971        C972   1.402       .  A
C971        H975   1.085       .  S
C972        C976   1.479       .  S
C972        C973   1.406       .  A
C973        C974   1.398       .  A
C973       Br985   1.920       .  S
C974        H977   1.084       .  S
C976        C978   1.399       .  A
C976        C982   1.409       .  A
C978        C979   1.396       .  A
C978        H983   1.084       .  S
C979        C980   1.413       .  A
C979       Br987   1.918   1_565  S
C980        C981   1.406       .  A
C981        C982   1.404       .  A
C981        H984   1.083       .  S
C982       Br988   1.917       .  S
C989        C990   1.413       .  A
C989        C994   1.405       .  A
C990        C991   1.404       .  A
C990      Br1006   1.917       .  S
C991        C992   1.403       .  A
C991        H995   1.084       .  S
C992        C996   1.478       .  S
C992        C993   1.406       .  A
C993        C994   1.396       .  A
C993      Br1005   1.920       .  S
C994        H997   1.084       .  S
C996        C998   1.400       .  A
C996       C1002   1.408       .  A
C998        C999   1.397       .  A
C998       H1003   1.083       .  S
C999       C1000   1.412       .  A
C999      Br1007   1.922       .  S
C1000      C1001   1.405       .  A
C1001      C1002   1.403       .  A
C1001      H1004   1.083       .  S
C1002     Br1008   1.917       .  S
C1009      C1010   1.415       .  A
C1009      C1014   1.405       .  A
C1010      C1011   1.400       .  A
C1010     Br1026   1.922       .  S
C1011      C1012   1.401       .  A
C1011      H1015   1.084       .  S
C1012      C1016   1.481       .  S
C1012      C1013   1.407       .  A
C1013      C1014   1.402       .  A
C1013     Br1025   1.917       .  S
C1014      H1017   1.084       .  S
C1016      C1018   1.403       .  A
C1016      C1022   1.407       .  A
C1018      C1019   1.404       .  A
C1018      H1023   1.084       .  S
C1019      C1020   1.414       .  A
C1019     Br1027   1.920       .  S
C1020      C1021   1.405       .  A
C1021      C1022   1.398       .  A
C1021      H1024   1.084       .  S
C1022     Br1028   1.920       .  S
C1029      C1030   1.413       .  A
C1029      C1034   1.405       .  A
C1030      C1031   1.395       .  A
C1030     Br1046   1.922       .  S
C1031      C1032   1.399       .  A
C1031      H1035   1.083       .  S
C1032      C1036   1.479       .  S
C1032      C1033   1.409       .  A
C1033      C1034   1.404       .  A
C1033     Br1045   1.917       .  S
C1034      H1037   1.083       .  S
C1036      C1038   1.402       .  A
C1036      C1042   1.407       .  A
C1038      C1039   1.401       .  A
C1038      H1043   1.085       .  S
C1039      C1040   1.416       .  A
C1039     Br1047   1.921       .  S
C1040      C1041   1.407       .  A
C1041      C1042   1.397       .  A
C1041      H1044   1.084       .  S
C1042     Br1048   1.920       .  S
C1049      C1050   1.411       .  A
C1049      C1054   1.404       .  A
C1050      C1051   1.404       .  A
C1050     Br1066   1.918       .  S
C1051      C1052   1.403       .  A
C1051      H1055   1.082       .  S
C1052      C1056   1.476       .  S
C1052      C1053   1.406       .  A
C1053      C1054   1.395       .  A
C1053     Br1065   1.920       .  S
C1054      H1057   1.083       .  S
C1056      C1058   1.403       .  A
C1056      C1062   1.405       .  A
C1058      C1059   1.404       .  A
C1058      H1063   1.083       .  S
C1059      C1060   1.412       .  A
C1059     Br1067   1.918       .  S
C1060      C1061   1.406       .  A
C1061      C1062   1.394       .  A
C1061      H1064   1.082       .  S
C1062     Br1068   1.921       .  S
C1069      C1070   1.414       .  A
C1069      C1074   1.406       .  A
C1070      C1071   1.404       .  A
C1070     Br1086   1.920       .  S
C1071      C1072   1.405       .  A
C1071      H1075   1.084       .  S
C1072      C1076   1.485       .  S
C1072      C1073   1.409       .  A
C1073      C1074   1.397       .  A
C1073     Br1085   1.921       .  S
C1074      H1077   1.082       .  S
C1076      C1078   1.401       .  A
C1076      C1082   1.408       .  A
C1078      C1079   1.401       .  A
C1078      H1083   1.083       .  S
C1079      C1080   1.418       .  A
C1079     Br1087   1.923       .  S
C1080      C1081   1.408       .  A
C1081      C1082   1.402       .  A
C1081      H1084   1.083       .  S
C1082     Br1088   1.919       .  S
C1089      C1090   1.414       .  A
C1089      C1094   1.406       .  A
C1090      C1091   1.398       .  A
C1090     Br1106   1.922       .  S
C1091      C1092   1.401       .  A
C1091      H1095   1.085       .  S
C1092      C1096   1.481       .  S
C1092      C1093   1.408       .  A
C1093      C1094   1.403       .  A
C1093     Br1105   1.918       .  S
C1094      H1097   1.084       .  S
C1096      C1098   1.402       .  A
C1096      C1102   1.407       .  A
C1098      C1099   1.403       .  A
C1098      H1103   1.084       .  S
C1099      C1100   1.417       .  A
C1099     Br1107   1.921       .  S
C1100      C1101   1.408       .  A
C1101      C1102   1.398       .  A
C1101      H1104   1.084       .  S
C1102     Br1108   1.920       .  S
C1109      C1110   1.414       .  A
C1109      C1114   1.406       .  A
C1110      C1111   1.400       .  A
C1110     Br1126   1.922       .  S
C1111      C1112   1.401       .  A
C1111      H1115   1.084       .  S
C1112      C1116   1.481       .  S
C1112      C1113   1.407       .  A
C1113      C1114   1.402       .  A
C1113     Br1125   1.917       .  S
C1114      H1117   1.084       .  S
C1116      C1118   1.402       .  A
C1116      C1122   1.407       .  A
C1118      C1119   1.403       .  A
C1118      H1123   1.084       .  S
C1119      C1120   1.414       .  A
C1119     Br1127   1.919       .  S
C1120      C1121   1.407       .  A
C1121      C1122   1.399       .  A
C1121      H1124   1.084       .  S
C1122     Br1128   1.920       .  S
C1129      C1130   1.415       .  A
C1129      C1134   1.407       .  A
C1130      C1131   1.395       .  A
C1130     Br1146   1.922       .  S
C1131      C1132   1.398       .  A
C1131      H1135   1.083       .  S
C1132      C1136   1.478       .  S
C1132      C1133   1.408       .  A
C1133      C1134   1.405       .  A
C1133     Br1145   1.916       .  S
C1134      H1137   1.082       .  S
C1136      C1138   1.403       .  A
C1136      C1142   1.407       .  A
C1138      C1139   1.403       .  A
C1138      H1143   1.084       .  S
C1139      C1140   1.410       .  A
C1139     Br1147   1.918       .  S
C1140      C1141   1.404       .  A
C1141      C1142   1.397       .  A
C1141      H1144   1.084       .  S
C1142     Br1148   1.920       .  S
C1149      C1150   1.410       .  A
C1149      C1154   1.403       .  A
C1150      C1151   1.396       .  A
C1150     Br1166   1.920       .  S
C1151      C1152   1.400       .  A
C1151      H1155   1.083       .  S
C1152      C1156   1.474       .  S
C1152      C1153   1.407       .  A
C1153      C1154   1.402       .  A
C1153     Br1165   1.917       .  S
C1154      H1157   1.083       .  S
C1156      C1158   1.400       .  A
C1156      C1162   1.404       .  A
C1158      C1159   1.400       .  A
C1158      H1163   1.085       .  S
C1159      C1160   1.416       .  A
C1159     Br1167   1.921       .  S
C1160      C1161   1.407       .  A
C1161      C1162   1.397       .  A
C1161      H1164   1.084       .  S
C1162     Br1168   1.919       .  S
C1169      C1170   1.418       .  A
C1169      C1174   1.409       .  A
C1170      C1171   1.402       .  A
C1170     Br1186   1.921       .  S
C1171      C1172   1.401       .  A
C1171      H1175   1.084       .  S
C1172      C1176   1.481       .  S
C1172      C1173   1.406       .  A
C1173      C1174   1.400       .  A
C1173     Br1185   1.919       .  S
C1174      H1177   1.084       .  S
C1176      C1178   1.405       .  A
C1176      C1182   1.405       .  A
C1178      C1179   1.407       .  A
C1178      H1183   1.082       .  S
C1179      C1180   1.414       .  A
C1179     Br1187   1.918       .  S
C1180      C1181   1.406       .  A
C1181      C1182   1.394       .  A
C1181      H1184   1.082   1_455  S
C1182     Br1188   1.921   1_455  S
C1189      C1190   1.415       .  A
C1189      C1194   1.409       .  A
C1190      C1191   1.407       .  A
C1190     Br1206   1.918       .  S
C1191      C1192   1.404       .  A
C1191      H1195   1.084       .  S
C1192      C1196   1.479       .  S
C1192      C1193   1.404       .  A
C1193      C1194   1.394       .  A
C1193     Br1205   1.921       .  S
C1194      H1197   1.084       .  S
C1196      C1198   1.401       .  A
C1196      C1202   1.408       .  A
C1198      C1199   1.398       .  A
C1198      H1203   1.082       .  S
C1199      C1200   1.411       .  A
C1199     Br1207   1.921       .  S
C1200      C1201   1.404       .  A
C1201      C1202   1.403       .  A
C1201      H1204   1.082       .  S
C1202     Br1208   1.917       .  S
C1209      C1210   1.416       .  A
C1209      C1214   1.406       .  A
C1210      C1211   1.404       .  A
C1210     Br1226   1.919       .  S
C1211      C1212   1.401       .  A
C1211      H1215   1.083       .  S
C1212      C1216   1.474       .  S
C1212      C1213   1.405       .  A
C1213      C1214   1.394       .  A
C1213     Br1225   1.921   1_554  S
C1214      H1217   1.083   1_554  S
C1216      C1218   1.400       .  A
C1216      C1222   1.407       .  A
C1218      C1219   1.395       .  A
C1218      H1223   1.083       .  S
C1219      C1220   1.410       .  A
C1219     Br1227   1.922   1_554  S
C1220      C1221   1.404       .  A
C1221      C1222   1.402       .  A
C1221      H1224   1.082       .  S
C1222     Br1228   1.916       .  S
C1229      C1230   1.416       .  A
C1229      C1234   1.406       .  A
C1230      C1231   1.398       .  A
C1230     Br1246   1.924   1_556  S
C1231      C1232   1.400       .  A
C1231      H1235   1.084       .  S
C1232      C1236   1.480       .  S
C1232      C1233   1.408       .  A
C1233      C1234   1.401       .  A
C1233     Br1245   1.918       .  S
C1234      H1237   1.084       .  S
C1236      C1238   1.402       .  A
C1236      C1242   1.408       .  A
C1238      C1239   1.401       .  A
C1238      H1243   1.085       .  S
C1239      C1240   1.414       .  A
C1239     Br1247   1.920       .  S
C1240      C1241   1.406       .  A
C1241      C1242   1.398       .  A
C1241      H1244   1.084       .  S
C1242     Br1248   1.921   1_556  S
C1249      C1250   1.414       .  A
C1249      C1254   1.407       .  A
C1250      C1251   1.397       .  A
C1250     Br1266   1.922   1_455  S
C1251      C1252   1.400       .  A
C1251      H1255   1.084       .  S
C1252      C1256   1.482       .  S
C1252      C1253   1.409       .  A
C1253      C1254   1.406       .  A
C1253     Br1265   1.918       .  S
C1254      H1257   1.083       .  S
C1256      C1258   1.403       .  A
C1256      C1262   1.407       .  A
C1258      C1259   1.403       .  A
C1258      H1263   1.085       .  S
C1259      C1260   1.415       .  A
C1259     Br1267   1.920       .  S
C1260      C1261   1.408       .  A
C1261      C1262   1.399       .  A
C1261      H1264   1.084       .  S
C1262     Br1268   1.919       .  S
C1269      C1270   1.415       .  A
C1269      C1274   1.407       .  A
C1270      C1271   1.400       .  A
C1270     Br1286   1.922   1_565  S
C1271      C1272   1.402       .  A
C1271      H1275   1.083       .  S
C1272      C1276   1.485       .  S
C1272      C1273   1.409       .  A
C1273      C1274   1.404       .  A
C1273     Br1285   1.918       .  S
C1274      H1277   1.083       .  S
C1276      C1278   1.402       .  A
C1276      C1282   1.408       .  A
C1278      C1279   1.403       .  A
C1278      H1283   1.084       .  S
C1279      C1280   1.417       .  A
C1279     Br1287   1.920       .  S
C1280      C1281   1.410       .  A
C1281      C1282   1.401       .  A
C1281      H1284   1.083       .  S
C1282     Br1288   1.920       .  S
C1289      C1290   1.414       .  A
C1289      C1294   1.407       .  A
C1290      C1291   1.407       .  A
C1290     Br1306   1.918       .  S
C1291      C1292   1.404       .  A
C1291      H1295   1.084       .  S
C1292      C1296   1.487       .  S
C1292      C1293   1.408       .  A
C1293      C1294   1.401       .  A
C1293     Br1305   1.920   1_545  S
C1294      H1297   1.084       .  S
C1296      C1298   1.402       .  A
C1296      C1302   1.410       .  A
C1298      C1299   1.400       .  A
C1298      H1303   1.082       .  S
C1299      C1300   1.412       .  A
C1299     Br1307   1.921       .  S
C1300      C1301   1.405       .  A
C1301      C1302   1.406       .  A
C1301      H1304   1.082       .  S
C1302     Br1308   1.916       .  S
C1309      C1310   1.414       .  A
C1309      C1314   1.405       .  A
C1310      C1311   1.398       .  A
C1310     Br1326   1.923   1_655  S
C1311      C1312   1.402       .  A
C1311      H1315   1.084       .  S
C1312      C1316   1.490       .  S
C1312      C1313   1.413       .  A
C1313      C1314   1.405       .  A
C1313     Br1325   1.918       .  S
C1314      H1317   1.083       .  S
C1316      C1318   1.400       .  A
C1316      C1322   1.410       .  A
C1318      C1319   1.400       .  A
C1318      H1323   1.083       .  S
C1319      C1320   1.422       .  A
C1319     Br1327   1.924       .  S
C1320      C1321   1.409       .  A
C1321      C1322   1.404       .  A
C1321      H1324   1.083       .  S
C1322     Br1328   1.919       .  S
