geometry optimzed in LAMMPS
_audit_creation_date              2020-11-30 
_audit_creation_method            'lammps2cif' 
_symmetry_space_group_name_H-M    'P1' 
_symmetry_Int_Tables_number       1 
_symmetry_cell_setting            triclinic 
loop_ 
_symmetry_equiv_pos_as_xyz 
  x,y,z 
_cell_length_a                    26.93465291 
_cell_length_b                    26.91166248050479 
_cell_length_c                    57.71783495855542 
_cell_angle_alpha                 90.043260221115 
_cell_angle_beta                  89.97459112745013 
_cell_angle_gamma                 88.92276895111311 
loop_ 
_atom_site_label 
_atom_site_type_symbol 
_atom_site_fract_x 
_atom_site_fract_y 
_atom_site_fract_z 
_atom_site_charge 
O1          O  0.45305998  0.43477464  0.16629201    -0.73300
O2          O  0.45279492  0.08356154  0.16628532    -0.74300
O3          O  0.45160387  0.00926091  0.13141754    -0.62900
O4          O  0.45472609  0.00900728  0.20111277    -0.71300
O5          O  0.03741839  0.50776349  0.20021590    -0.70800
O6          O  0.03376683  0.50714816  0.13086333    -0.62100
O7          O  0.03527638  0.08201407  0.16537786    -0.74600
O8          O  0.03555473  0.43318570  0.16565749    -0.73400
Cu9        Cu  0.45010777  0.00923272  0.16630384     1.04600
Cu10       Cu  0.03835738  0.50753779  0.16548868     1.04300
C11         C  0.99429939  0.41057112  0.16602566     0.92900
C12         C  0.99401777  0.10619866  0.16577324     0.92100
C13         C  0.49228260  0.50802877  0.12011812     0.84200
C14         C  0.99654597  0.00813382  0.21155563     0.90500
O15         O  0.03887406  0.25674789  0.19991821    -0.73300
O16         O  0.03213801  0.25792769  0.13071113    -0.74300
O17         O  0.03545741  0.33195380  0.16546175    -0.62900
O18         O  0.03526374  0.18314552  0.16504619    -0.71300
O19         O  0.45280608  0.18480866  0.16637557    -0.70800
O20         O  0.45300260  0.33363461  0.16680775    -0.62100
O21         O  0.44984883  0.25988206  0.13173599    -0.74600
O22         O  0.45638049  0.25851627  0.20143872    -0.73400
Cu23       Cu  0.03826593  0.25744883  0.16521598     1.04600
Cu24       Cu  0.45006463  0.25931131  0.16666305     1.04300
C25         C  0.99859144  0.25710651  0.21154421     0.92900
C26         C  0.49038679  0.25888675  0.12019909     0.92100
C27         C  0.49425811  0.35620407  0.16611537     0.84200
C28         C  0.49401157  0.16056786  0.16570358     0.90500
O29         O  0.29199749  0.50310727  0.13143813    -0.73300
O30         O  0.29165781  0.50379251  0.20090891    -0.74300
O31         O  0.29195445  0.42915521  0.16625917    -0.62900
O32         O  0.29194732  0.07796475  0.16602410    -0.71300
O33         O  0.20944565  0.07952264  0.16594183    -0.70800
O34         O  0.20944535  0.43072797  0.16634305    -0.62100
O35         O  0.20907952  0.50562442  0.20082047    -0.74600
O36         O  0.20971351  0.50455807  0.13150305    -0.73400
Cu37       Cu  0.29477931  0.50347656  0.16616865     1.04600
Cu38       Cu  0.20651981  0.50517290  0.16614471     1.04300
C39         C  0.25079891  0.50370776  0.12044435     0.92900
C40         C  0.25028814  0.50480674  0.21171687     0.92100
C41         C  0.25069615  0.40654144  0.16632955     0.84200
C42         C  0.25069257  0.10216299  0.16597175     0.90500
O43         O  0.20941760  0.32958887  0.16666489    -0.73300
O44         O  0.20942180  0.18074834  0.16630547    -0.74300
O45         O  0.21040258  0.25492549  0.20123707    -0.62900
O46         O  0.20837026  0.25553675  0.13180951    -0.71300
O47         O  0.29061493  0.25362829  0.13127102    -0.70800
O48         O  0.29296467  0.25356071  0.20075841    -0.62100
O49         O  0.29191744  0.17919524  0.16592301    -0.74600
O50         O  0.29191414  0.32799850  0.16604155    -0.73400
Cu51       Cu  0.20651842  0.25525894  0.16653209     1.04600
Cu52       Cu  0.29475117  0.25355437  0.16598038     1.04300
C53         C  0.25067727  0.35219485  0.16635927     0.92900
C54         C  0.25067456  0.15655240  0.16604579     0.92100
C55         C  0.25195695  0.25423983  0.21186094     0.84200
C56         C  0.24913749  0.25463418  0.12049235     0.90500
O57         O  0.42415159  0.04715765  0.28294820    -0.73300
O58         O  0.07299163  0.04721371  0.28248907    -0.74300
O59         O  0.99771779  0.04835454  0.24796094    -0.62900
O60         O  0.99887318  0.04622384  0.31746341    -0.71300
O61         O  0.00068339  0.46419955  0.31692751    -0.70800
O62         O  0.99951108  0.46589922  0.24740490    -0.62100
O63         O  0.07464293  0.46492893  0.28199639    -0.74600
O64         O  0.42587155  0.46482274  0.28241867    -0.73400
Cu65       Cu  0.99843716  0.05012238  0.28273325     1.04600
Cu66       Cu  0.00027931  0.46207017  0.28216511     1.04300
C67         C  0.40158056  0.00584557  0.28276332     0.92900
C68         C  0.09721111  0.00593686  0.28221267     0.92100
C69         C  0.99790709  0.00737828  0.23681161     0.84200
C70         C  0.99991314  0.00474321  0.32824734     0.90500
O71         O  0.42685785  0.29529023  0.28280502    -0.73300
O72         O  0.07590548  0.29553622  0.28263721    -0.74300
O73         O  0.00072792  0.29692122  0.24798221    -0.62900
O74         O  0.00122048  0.29484622  0.31736964    -0.71300
O75         O  0.00334179  0.21246755  0.31700858    -0.70800
O76         O  0.00234702  0.21430652  0.24733751    -0.62100
O77         O  0.07735136  0.21298718  0.28205124    -0.74600
O78         O  0.42878329  0.21271993  0.28238418    -0.73400
Cu79       Cu  0.00121362  0.29854016  0.28270868     1.04600
Cu80       Cu  0.00309399  0.21022720  0.28216684     1.04300
C81         C  0.40443196  0.25386518  0.28265270     0.92900
C82         C  0.10005929  0.25418388  0.28239681     0.92100
C83         C  0.00079682  0.25602884  0.23678872     0.84200
C84         C  0.00182244  0.25349683  0.32821568     0.90500
O85         O  0.24922856  0.04657464  0.24770339    -0.73300
O86         O  0.24820018  0.04784913  0.31716954    -0.74300
O87         O  0.32306266  0.04708373  0.28264381    -0.62900
O88         O  0.17425895  0.04720430  0.28220257    -0.71300
O89         O  0.17588374  0.46489434  0.28257214    -0.70800
O90         O  0.32472094  0.46472636  0.28270035    -0.62100
O91         O  0.25035265  0.46577703  0.31738312    -0.74600
O92         O  0.25060317  0.46403696  0.24792310    -0.73400
Cu93       Cu  0.24862315  0.05005791  0.28241560     1.04600
Cu94       Cu  0.25041020  0.46195183  0.28266246     1.04300
C95         C  0.25004012  0.50517679  0.23693137     0.92900
C96         C  0.24944242  0.00683183  0.32831901     0.92100
C97         C  0.34732008  0.50602168  0.28263966     0.84200
C98         C  0.15168356  0.50617957  0.28234211     0.90500
O99         O  0.32582535  0.29471775  0.28299634    -0.73300
O100        O  0.17724286  0.29505834  0.28270590    -0.74300
O101        O  0.25108102  0.29367967  0.31761052    -0.62900
O102        O  0.25186422  0.29522721  0.24809151    -0.71300
O103        O  0.25316446  0.21259062  0.24783086    -0.70800
O104        O  0.25311302  0.21129394  0.31729210    -0.62100
O105        O  0.17854803  0.21249633  0.28251289    -0.74600
O106        O  0.32760541  0.21215054  0.28253792    -0.73400
Cu107      Cu  0.25150029  0.29753825  0.28287340     1.04600
Cu108      Cu  0.25317697  0.20921140  0.28253492     1.04300
C109        C  0.35010943  0.25353221  0.28274733     0.92900
C110        C  0.15446901  0.25389289  0.28254368     0.92100
C111        C  0.25162435  0.25229565  0.32847384     0.84200
C112        C  0.25247625  0.25403207  0.23709761     0.90500
O113        O  0.99433853  0.04722527  0.44012953    -0.73300
O114        O  0.99452538  0.04521949  0.50966600    -0.74300
O115        O  0.06897384  0.04610717  0.47490279    -0.62900
O116        O  0.42014642  0.04664957  0.47493184    -0.71300
O117        O  0.42167232  0.46428104  0.47446613    -0.70800
O118        O  0.07049708  0.46375566  0.47402530    -0.62100
O119        O  0.49683142  0.46298508  0.50897330    -0.74600
O120        O  0.49560393  0.46503434  0.43954474    -0.73400
Cu121      Cu  0.99446784  0.04919489  0.47492213     1.04600
Cu122      Cu  0.49616373  0.46114421  0.47423547     1.04300
C123        C  0.99467520  0.50653608  0.42878671     0.92900
C124        C  0.49582086  0.50380099  0.52031136     0.92100
C125        C  0.09314236  0.50501302  0.47445985     0.84200
C126        C  0.39749745  0.50557507  0.47468734     0.90500
O127        O  0.00249782  0.20738312  0.43968784    -0.73300
O128        O  0.00051283  0.20747174  0.50916411    -0.74300
O129        O  0.42708592  0.20758460  0.47407809    -0.62900
O130        O  0.07580691  0.20658288  0.47483795    -0.71300
O131        O  0.07449975  0.28913433  0.47490593    -0.70800
O132        O  0.42558027  0.29014142  0.47414688    -0.62100
O133        O  0.99901663  0.28984259  0.50922273    -0.74600
O134        O  0.00092523  0.28975930  0.43977749    -0.73400
Cu135      Cu  0.00147333  0.20438191  0.47443634     1.04600
Cu136      Cu  0.99997372  0.29260406  0.47450618     1.04300
C137        C  0.00228390  0.24860590  0.42870670     0.92900
C138        C  0.99971201  0.24864526  0.52022153     0.92100
C139        C  0.40292615  0.24886580  0.47412120     0.84200
C140        C  0.09857657  0.24776516  0.47494423     0.90500
O141        O  0.32055880  0.46427227  0.47391022    -0.73300
O142        O  0.17175266  0.46382743  0.47354243    -0.74300
O143        O  0.24657323  0.46808585  0.43912972    -0.62900
O144        O  0.24590077  0.45982087  0.50836801    -0.71300
O145        O  0.24531009  0.04194553  0.51029674    -0.70800
O146        O  0.24385023  0.05004010  0.44063999    -0.62100
O147        O  0.17011657  0.04603867  0.47570626    -0.74600
O148        O  0.31888663  0.04655626  0.47527367    -0.73400
Cu149      Cu  0.24622521  0.46117688  0.47365306     1.04600
Cu150      Cu  0.24443485  0.04905983  0.47556657     1.04300
C151        C  0.34313210  0.50555922  0.47463121     0.92900
C152        C  0.14750854  0.50502074  0.47455483     0.92100
C153        C  0.24530302  0.51012922  0.42883973     0.84200
C154        C  0.24573040  0.49971977  0.52035367     0.90500
O155        O  0.32423533  0.28990646  0.47433609    -0.73300
O156        O  0.17552904  0.28897263  0.47498543    -0.74300
O157        O  0.25049765  0.28955979  0.50946398    -0.62900
O158        O  0.24932952  0.28892467  0.43991831    -0.71300
O159        O  0.25179224  0.20654547  0.44000405    -0.70800
O160        O  0.25188843  0.20719863  0.50939988    -0.62100
O161        O  0.17724680  0.20642229  0.47483271    -0.74600
O162        O  0.32612089  0.20735115  0.47453257    -0.73400
Cu163      Cu  0.24980661  0.29222072  0.47467506     1.04600
Cu164      Cu  0.25182219  0.20400109  0.47470640     1.04300
C165        C  0.34858027  0.24873095  0.47430122     0.92900
C166        C  0.15296514  0.24766604  0.47496278     0.92100
C167        C  0.25097363  0.24834099  0.52046606     0.84200
C168        C  0.25095430  0.24764148  0.42893936     0.90500
O169        O  0.03776171  0.49685948  0.00885725    -0.73300
O170        O  0.04061765  0.49589620  0.93948120    -0.74300
O171        O  0.03861875  0.07107554  0.97417687    -0.62900
O172        O  0.03915922  0.42210282  0.97418484    -0.71300
O173        O  0.45668337  0.42396230  0.97326144    -0.70800
O174        O  0.45611833  0.07265731  0.97385261    -0.62100
O175        O  0.45810476  0.49904957  0.93867928    -0.74600
O176        O  0.45547250  0.49832631  0.00839212    -0.73400
Cu177      Cu  0.04194567  0.49644696  0.97420312     1.04600
Cu178      Cu  0.45372227  0.49847744  0.97351213     1.04300
C179        C  0.99636294  0.49785443  0.01966299     0.92900
C180        C  0.99988477  0.49729759  0.92818416     0.92100
C181        C  0.99733037  0.09527304  0.97417685     0.84200
C182        C  0.99784127  0.39962203  0.97362123     0.90500
O183        O  0.45624341  0.32281810  0.97332899    -0.73300
O184        O  0.45598801  0.17389052  0.97413039    -0.74300
O185        O  0.45425012  0.24986950  0.00849428    -0.62900
O186        O  0.45769808  0.24740038  0.93911408    -0.71300
O187        O  0.04010354  0.24466099  0.93961857    -0.70800
O188        O  0.03652400  0.24816895  0.00901909    -0.62100
O189        O  0.03846753  0.17221044  0.97488788    -0.74600
O190        O  0.03873439  0.32088059  0.97374524    -0.73400
Cu191      Cu  0.45314760  0.24850328  0.97373484     1.04600
Cu192      Cu  0.04132736  0.24641740  0.97436198     1.04300
C193        C  0.99760083  0.34525839  0.97351214     0.92900
C194        C  0.99723173  0.14963820  0.97445462     0.92100
C195        C  0.49504708  0.24963147  0.01978637     0.84200
C196        C  0.99921747  0.24572744  0.92840530     0.90500
O197        O  0.21289679  0.49907971  0.00915530    -0.73300
O198        O  0.21187171  0.49908302  0.93984345    -0.74300
O199        O  0.21149532  0.42494125  0.97433015    -0.62900
O200        O  0.21281643  0.07360734  0.97460828    -0.71300
O201        O  0.29530764  0.07204523  0.97457434    -0.70800
O202        O  0.29398936  0.42312346  0.97382875    -0.62100
O203        O  0.29426882  0.49819260  0.93956348    -0.74600
O204        O  0.29518250  0.49673176  0.00888877    -0.73400
Cu205      Cu  0.20934451  0.49932561  0.97449907     1.04600
Cu206      Cu  0.29753243  0.49747337  0.97421256     1.04300
C207        C  0.25421994  0.49762361  0.02004319     0.92900
C208        C  0.25291946  0.49802677  0.92874074     0.92100
C209        C  0.25263440  0.40063240  0.97394445     0.84200
C210        C  0.25405220  0.09624790  0.97462959     0.90500
O211        O  0.21148720  0.25034254  0.00882041    -0.73300
O212        O  0.21190365  0.24711553  0.93929074    -0.74300
O213        O  0.21240445  0.17454336  0.97469050    -0.62900
O214        O  0.21134367  0.32349091  0.97350246    -0.71300
O215        O  0.29383788  0.32227293  0.97403113    -0.70800
O216        O  0.29489743  0.17357054  0.97428344    -0.62100
O217        O  0.29441736  0.24796726  0.93937504    -0.74600
O218        O  0.29375398  0.24840785  0.00886840    -0.73400
Cu219      Cu  0.20887486  0.24894630  0.97406333     1.04600
Cu220      Cu  0.29709660  0.24801899  0.97413895     1.04300
C221        C  0.25258648  0.24941523  0.01989263     0.92900
C222        C  0.25322566  0.24715656  0.92843849     0.92100
C223        C  0.25382154  0.15063756  0.97457440     0.84200
C224        C  0.25253498  0.34628676  0.97377183     0.90500
O225        O  0.46212421  0.06894182  0.78206710    -0.73300
O226        O  0.46219448  0.42027710  0.78416411    -0.74300
O227        O  0.46321685  0.49753584  0.81783197    -0.62900
O228        O  0.46115315  0.49237876  0.74838252    -0.71300
O229        O  0.04370628  0.49167613  0.74791312    -0.70800
O230        O  0.04573620  0.49373467  0.81748662    -0.62100
O231        O  0.04467960  0.41840818  0.78317469    -0.74600
O232        O  0.04464056  0.06736553  0.78227501    -0.73400
Cu233      Cu  0.45927797  0.49478251  0.78313913     1.04600
Cu234      Cu  0.04760765  0.49272555  0.78267279     1.04300
C235        C  0.00335870  0.09155518  0.78201281     0.92900
C236        C  0.00336091  0.39593011  0.78379318     0.92100
C237        C  0.00469577  0.49641049  0.82854690     0.84200
C238        C  0.00215160  0.49163467  0.73727742     0.90500
O239        O  0.04446843  0.24058733  0.81743998    -0.73300
O240        O  0.04372743  0.24475620  0.74789212    -0.74300
O241        O  0.04434780  0.31722278  0.78356820    -0.62900
O242        O  0.04448580  0.16853210  0.78184023    -0.71300
O243        O  0.46197576  0.17010416  0.78221974    -0.70800
O244        O  0.46183993  0.31903760  0.78356836    -0.62100
O245        O  0.46115262  0.24616255  0.74823848    -0.74600
O246        O  0.46203364  0.24332698  0.81745974    -0.73400
Cu247      Cu  0.04718372  0.24273726  0.78267087     1.04600
Cu248      Cu  0.45887398  0.24467554  0.78287354     1.04300
C249        C  0.00321596  0.24132857  0.82839989     0.92900
C250        C  0.00219925  0.24608471  0.73721645     0.92100
C251        C  0.00316889  0.34154418  0.78373766     0.84200
C252        C  0.00325821  0.14591481  0.78193524     0.90500
O253        O  0.21137300  0.49165709  0.74855135    -0.73300
O254        O  0.21333178  0.49243648  0.81795740    -0.74300
O255        O  0.21231284  0.06640682  0.78307489    -0.62900
O256        O  0.21206032  0.41766458  0.78353464    -0.71300
O257        O  0.29456855  0.41600956  0.78326317    -0.70800
O258        O  0.29480712  0.06491070  0.78233637    -0.62100
O259        O  0.29571220  0.49175508  0.81742193    -0.74600
O260        O  0.29393692  0.48942688  0.74804757    -0.73400
Cu261      Cu  0.20943505  0.49206355  0.78329990     1.04600
Cu262      Cu  0.29771847  0.49040272  0.78274278     1.04300
C263        C  0.25236230  0.49052015  0.73744132     0.92900
C264        C  0.25483624  0.49281951  0.82865744     0.92100
C265        C  0.25353706  0.08907256  0.78266217     0.84200
C266        C  0.25326517  0.39343585  0.78353630     0.90500
O267        O  0.29587111  0.24063685  0.81763381    -0.73300
O268        O  0.29251922  0.24145431  0.74802467    -0.74300
O269        O  0.29440614  0.31496614  0.78300918    -0.62900
O270        O  0.29456289  0.16624733  0.78262998    -0.71300
O271        O  0.21205285  0.16749982  0.78285696    -0.70800
O272        O  0.21193200  0.31640724  0.78431603    -0.62100
O273        O  0.20997994  0.24390269  0.74889362    -0.74600
O274        O  0.21335728  0.23995770  0.81828221    -0.73400
Cu275      Cu  0.29726094  0.24068432  0.78279281     1.04600
Cu276      Cu  0.20894002  0.24195211  0.78362384     1.04300
C277        C  0.25498161  0.24013599  0.82884759     0.92900
C278        C  0.25070961  0.24355387  0.73759812     0.92100
C279        C  0.25317293  0.33908502  0.78368268     0.84200
C280        C  0.25339465  0.14345705  0.78267944     0.90500
O281        O  0.42621145  0.03440317  0.66694536    -0.73300
O282        O  0.07506432  0.03473289  0.66652683    -0.74300
O283        O  0.99997884  0.03590353  0.63201959    -0.62900
O284        O  0.50116668  0.03354860  0.70140848    -0.71300
O285        O  0.50194189  0.45084832  0.70089533    -0.70800
O286        O  0.50274440  0.45358084  0.63123157    -0.62100
O287        O  0.07654020  0.45209532  0.66624085    -0.74600
O288        O  0.42778758  0.45187106  0.66588431    -0.73400
Cu289      Cu  0.00054270  0.03751838  0.66674221     1.04600
Cu290      Cu  0.50228473  0.44918032  0.66603076     1.04300
C291        C  0.40350478  0.49308475  0.66639312     0.92900
C292        C  0.09913188  0.49338313  0.66648765     0.92100
C293        C  0.50155156  0.49527066  0.62061526     0.84200
C294        C  0.50153650  0.49190028  0.71202083     0.90500
O295        O  0.07460150  0.20851619  0.66555576    -0.73300
O296        O  0.42599680  0.20820166  0.66654403    -0.74300
O297        O  0.99906509  0.21058777  0.63138106    -0.62900
O298        O  0.00165058  0.20663901  0.70070461    -0.71300
O299        O  0.00003262  0.28926333  0.70161863    -0.70800
O300        O  0.99700695  0.29294769  0.63210484    -0.62100
O301        O  0.42413576  0.29074992  0.66748058    -0.74600
O302        O  0.07312933  0.29106388  0.66633688    -0.73400
Cu303      Cu  0.00037166  0.20564148  0.66599987     1.04600
Cu304      Cu  0.99851464  0.29394874  0.66691678     1.04300
C305        C  0.09728935  0.24973044  0.66596085     0.92900
C306        C  0.40166890  0.24935680  0.66709782     0.92100
C307        C  0.99743517  0.25220724  0.62071743     0.84200
C308        C  0.00142518  0.24740395  0.71200981     0.90500
O309        O  0.25144900  0.45343762  0.63140807    -0.73300
O310        O  0.25264680  0.45035775  0.70098882    -0.74300
O311        O  0.17761970  0.45200280  0.66641935    -0.62900
O312        O  0.32648113  0.45173968  0.66595147    -0.71300
O313        O  0.32513662  0.03428089  0.66714307    -0.70800
O314        O  0.17635490  0.03465095  0.66688619    -0.62100
O315        O  0.25051336  0.03301032  0.70172718    -0.74600
O316        O  0.25111475  0.03584795  0.63237333    -0.73400
Cu317      Cu  0.25207997  0.44896175  0.66617358     1.04600
Cu318      Cu  0.25071535  0.03731562  0.66706785     1.04300
C319        C  0.25139001  0.49520172  0.62085771     0.92900
C320        C  0.25172773  0.49126077  0.71221436     0.92100
C321        C  0.15349397  0.49332487  0.66662597     0.84200
C322        C  0.34913324  0.49300781  0.66647206     0.90500
O323        O  0.25010816  0.20505859  0.70086611    -0.73300
O324        O  0.25083004  0.20971260  0.63161027    -0.74300
O325        O  0.32478519  0.20774379  0.66644454    -0.62900
O326        O  0.17574884  0.20806136  0.66593261    -0.71300
O327        O  0.17449226  0.29059751  0.66684385    -0.70800
O328        O  0.32309581  0.29027762  0.66766655    -0.62100
O329        O  0.24989682  0.29206380  0.63245434    -0.74600
O330        O  0.24826779  0.28764564  0.70213164    -0.73400
Cu331      Cu  0.25035612  0.20477277  0.66617778     1.04600
Cu332      Cu  0.24882448  0.29305833  0.66732897     1.04300
C333        C  0.24950377  0.24554506  0.71236379     0.92900
C334        C  0.25090628  0.25135480  0.62100481     0.92100
C335        C  0.34733497  0.24908283  0.66711792     0.84200
C336        C  0.15169329  0.24945729  0.66620773     0.92900
C337        C  0.25348664  0.24596396  0.90297896    -0.00500
C338        C  0.23864353  0.20264732  0.89158630    -0.12400
C339        C  0.23963399  0.19973017  0.86735285     0.01700
C340        C  0.25557176  0.24071943  0.85430216    -0.00600
C341        C  0.27035627  0.28401961  0.86569750    -0.12300
C342        C  0.26901912  0.28706843  0.88990802     0.01600
H343        H  0.22690039  0.17093178  0.90164264     0.14600
H344        H  0.28179520  0.31585203  0.85564056     0.14600
C345        C  0.28131807  0.33343069  0.90092505     0.36300
C346        C  0.22570343  0.15394178  0.85625240     0.36200
N347        N  0.29072466  0.37071393  0.90975000    -0.44100
N348        N  0.21481921  0.11721313  0.84731550    -0.44100
C349        C  0.25280206  0.49638629  0.90315716    -0.00500
C350        C  0.29063583  0.02036975  0.89098497    -0.12400
C351        C  0.29197430  0.01974629  0.86676004     0.01700
C352        C  0.25525577  0.49438709  0.85425576    -0.00600
C353        C  0.21758165  0.47024735  0.86640832    -0.12300
C354        C  0.21628448  0.47064325  0.89062186     0.01600
H355        H  0.31885831  0.04032533  0.90042807     0.14600
H356        H  0.18956303  0.45004235  0.85695195     0.14600
C357        C  0.17889569  0.44185286  0.90212613     0.36300
C358        C  0.33018385  0.04727571  0.85519135     0.36200
N359        N  0.14937578  0.41840219  0.91143976    -0.44100
N360        N  0.36041406  0.06948472  0.84571577    -0.44100
C361        C  0.00270175  0.24112437  0.85397265    -0.00500
C362        C  0.46687911  0.27061656  0.86542961    -0.12400
C363        C  0.46532928  0.27284355  0.88960571     0.01700
C364        C  0.99992309  0.24483555  0.90282035    -0.00600
C365        C  0.03559283  0.21501464  0.89138162    -0.12300
C366        C  0.03698486  0.21261276  0.86714517     0.01600
H367        H  0.44063144  0.29289632  0.85544339     0.14600
H368        H  0.06169482  0.19265871  0.90140645     0.14600
C369        C  0.07170688  0.17828641  0.85629975     0.36300
C370        C  0.42961173  0.30622255  0.90036129     0.36200
N371        N  0.09891058  0.15024738  0.84756019    -0.44100
N372        N  0.40142315  0.33323063  0.90910855    -0.44100
C373        C  0.00495461  0.49785714  0.85400245    -0.00500
C374        C  0.01956171  0.45502600  0.86621260    -0.12400
C375        C  0.01748999  0.45401671  0.89045135     0.01700
C376        C  0.00132262  0.49666682  0.90272186    -0.00600
C377        C  0.48693238  0.03968464  0.89051465    -0.12300
C378        C  0.48876952  0.04054385  0.86625713     0.01600
H379        H  0.03134150  0.42201020  0.85678014     0.14600
H380        H  0.47503776  0.07268193  0.89993168     0.14600
C381        C  0.47525760  0.08587248  0.85425686     0.36300
C382        C  0.02981128  0.40819512  0.90231767     0.36200
N383        N  0.46437202  0.12204315  0.84452669    -0.44100
N384        N  0.03933930  0.37137488  0.91181067    -0.44100
C385        C  0.25069938  0.24847298  0.54619120    -0.00500
C386        C  0.26988425  0.28962201  0.55798422    -0.12400
C387        C  0.27061298  0.29153725  0.58224651     0.01700
C388        C  0.25151914  0.25171999  0.59528275    -0.00600
C389        C  0.23250459  0.21054592  0.58347160    -0.12300
C390        C  0.23166530  0.20865693  0.55925606     0.01600
H391        H  0.28507633  0.32018917  0.54822938     0.14600
H392        H  0.21732180  0.17991131  0.59318890     0.14600
C393        C  0.20894225  0.16630236  0.54845634     0.36300
C394        C  0.29302370  0.33391355  0.59314912     0.36200
N395        N  0.19048422  0.13246221  0.53985725    -0.44100
N396        N  0.31118039  0.36780256  0.60184818    -0.44100
C397        C  0.25127322  0.49646107  0.59514217    -0.00500
C398        C  0.23041102  0.45673704  0.58295921    -0.12400
C399        C  0.22812904  0.45671806  0.55870532     0.01700
C400        C  0.24709389  0.49723780  0.54605637    -0.00600
C401        C  0.26864105  0.03658337  0.55825352    -0.12300
C402        C  0.27107475  0.03657967  0.58247110     0.01600
H403        H  0.21488064  0.42590774  0.59242878     0.14600
H404        H  0.28425371  0.06737903  0.54879245     0.14600
C405        C  0.29544252  0.07752212  0.59365211     0.36300
C406        C  0.20428497  0.41550560  0.54749332     0.36200
N407        N  0.31506188  0.11033317  0.60254713    -0.44100
N408        N  0.18500989  0.38240803  0.53866055    -0.44100
C409        C  0.99710057  0.25250121  0.59500161    -0.00500
C410        C  0.01786185  0.21125292  0.58333182    -0.12400
C411        C  0.01949442  0.20923926  0.55914293     0.01700
C412        C  0.99931318  0.24895524  0.54593237    -0.00600
C413        C  0.47847930  0.29027937  0.55756750    -0.12300
C414        C  0.47710890  0.29242524  0.58181848     0.01600
H415        H  0.03396440  0.18061343  0.59317279     0.14600
H416        H  0.46257861  0.32093875  0.54766988     0.14600
C417        C  0.45359837  0.33536591  0.59250236     0.36300
C418        C  0.04422290  0.16689572  0.54853353     0.36200
N419        N  0.43474484  0.36993924  0.60090029    -0.44100
N420        N  0.06422482  0.13298364  0.54012165    -0.44100
C421        C  0.50106685  0.49688003  0.59493314    -0.00500
C422        C  0.47554681  0.03627592  0.58393969    -0.12400
C423        C  0.47304114  0.03926203  0.55974564     0.01700
C424        C  0.49685384  0.50248826  0.54598060    -0.00600
C425        C  0.02202593  0.46284331  0.55698194    -0.12300
C426        C  0.02454910  0.45984651  0.58117475     0.01600
H427        H  0.45677649  0.06453836  0.59427003     0.14600
H428        H  0.04056532  0.43444520  0.54664168     0.14600
C429        C  0.05319344  0.41942393  0.59126307     0.36300
C430        C  0.44412015  0.07946793  0.54963012     0.36200
N431        N  0.07624774  0.38700563  0.59924909    -0.44100
N432        N  0.42080434  0.11164857  0.54159790    -0.44100
C433        C  0.25152897  0.24780480  0.40323588    -0.00500
C434        C  0.22918950  0.28815791  0.39155785    -0.12400
C435        C  0.22836179  0.29025657  0.36733608     0.01700
C436        C  0.25080549  0.25158417  0.35418045    -0.00600
C437        C  0.27301847  0.21108545  0.36584926    -0.12300
C438        C  0.27386723  0.20900848  0.39009916     0.01600
H439        H  0.21147798  0.31790324  0.40138368     0.14600
H440        H  0.29061583  0.18129156  0.35600998     0.14600
C441        C  0.29946485  0.16747669  0.40092393     0.36300
C442        C  0.20234323  0.33159067  0.35657295     0.36200
N443        N  0.31968922  0.13408433  0.40963109    -0.44100
N444        N  0.18144874  0.36470267  0.34797140    -0.44100
C445        C  0.24984815  0.50786646  0.35400961    -0.00500
C446        C  0.22833690  0.04869105  0.36564843    -0.12400
C447        C  0.22627876  0.05058667  0.38990677     0.01700
C448        C  0.24653593  0.51121911  0.40310638    -0.00600
C449        C  0.26804714  0.47027597  0.39147781    -0.12300
C450        C  0.26998884  0.46823180  0.36729283     0.01600
H451        H  0.21224174  0.07919492  0.35572240     0.14600
H452        H  0.28400442  0.43962747  0.40135382     0.14600
C453        C  0.29430162  0.42553467  0.35678751     0.36300
C454        C  0.20159501  0.09288619  0.40053597     0.36200
N455        N  0.31378413  0.39116954  0.34851634    -0.44100
N456        N  0.18193914  0.12705743  0.40888748    -0.44100
C457        C  0.00124898  0.25290421  0.35392875    -0.00500
C458        C  0.02302811  0.21211323  0.36551457    -0.12400
C459        C  0.02420304  0.20993876  0.38974564     0.01700
C460        C  0.00290581  0.24910771  0.40299379    -0.00600
C461        C  0.48112788  0.28990381  0.39140876    -0.12300
C462        C  0.47964071  0.29194240  0.36718502     0.01600
H463        H  0.03992758  0.18200434  0.35560733     0.14600
H464        H  0.46410427  0.31994834  0.40131793     0.14600
C465        C  0.45361003  0.33348373  0.35658327     0.36300
C466        C  0.04879962  0.16767748  0.40041739     0.36200
N467        N  0.43269738  0.36686008  0.34820680    -0.44100
N468        N  0.06813241  0.13358809  0.40896306    -0.44100
C469        C  0.99494671  0.50685209  0.40305041    -0.00500
C470        C  0.01513586  0.46540339  0.39130702    -0.12400
C471        C  0.01784283  0.46413378  0.36709481     0.01700
C472        C  0.99920737  0.50473601  0.35395947    -0.00600
C473        C  0.47883641  0.04583585  0.36571142    -0.12300
C474        C  0.47631762  0.04723923  0.38993784     0.01600
H475        H  0.03002512  0.43411870  0.40110232     0.14600
H476        H  0.46401702  0.07712993  0.35590024     0.14600
C477        C  0.45299270  0.09019380  0.40067360     0.36300
C478        C  0.04204283  0.42160116  0.35640087     0.36200
N479        N  0.43455267  0.12475932  0.40926014    -0.44100
N480        N  0.06150520  0.38749431  0.34789093    -0.44100
C481        C  0.24882309  0.25383322  0.09474381    -0.00500
C482        C  0.29113355  0.23519679  0.08316155    -0.12400
C483        C  0.29294825  0.23246572  0.05897403     0.01700
C484        C  0.25220458  0.25002584  0.04564229    -0.00600
C485        C  0.20975165  0.26848971  0.05720319    -0.12300
C486        C  0.20749180  0.27018482  0.08144010     0.01600
H487        H  0.32269505  0.22136348  0.09306400     0.14600
H488        H  0.17810002  0.28200002  0.04727158     0.14600
C489        C  0.16251986  0.28968813  0.09197792     0.36300
C490        C  0.33597301  0.20865978  0.04854602     0.36200
N491        N  0.12640073  0.30519472  0.10037779    -0.44100
N492        N  0.37022423  0.18899154  0.04028547    -0.44100
C493        C  0.25094846  0.50262056  0.09474619    -0.00500
C494        C  0.29288059  0.48281087  0.08325838    -0.12400
C495        C  0.29478993  0.48008363  0.05905814     0.01700
C496        C  0.25417713  0.49804271  0.04573682    -0.00600
C497        C  0.21226815  0.01739332  0.05723325    -0.12300
C498        C  0.21020283  0.01990621  0.08140418     0.01600
H499        H  0.32413735  0.46848250  0.09323809     0.14600
H500        H  0.18093154  0.03159480  0.04727003     0.14600
C501        C  0.16636786  0.04227128  0.09178941     0.36300
C502        C  0.33801379  0.45668966  0.04859290     0.36200
N503        N  0.13119531  0.06033329  0.09998793    -0.44100
N504        N  0.37257127  0.43761173  0.04031067    -0.44100
C505        C  0.48998395  0.25733087  0.09449746    -0.00500
C506        C  0.03099876  0.23516886  0.08324208    -0.12400
C507        C  0.03367010  0.23251118  0.05911128     0.01700
C508        C  0.49409945  0.25160888  0.04549139    -0.00600
C509        C  0.45289395  0.27379215  0.05670849    -0.12300
C510        C  0.45068933  0.27727093  0.08094316     0.01600
H511        H  0.06132079  0.21939504  0.09338138     0.14600
H512        H  0.42270068  0.28957394  0.04648829     0.14600
C513        C  0.40906036  0.30380749  0.09121538     0.36300
C514        C  0.07726530  0.20906384  0.04901821     0.36200
N515        N  0.37584516  0.32553232  0.09930971    -0.44100
N516        N  0.11239061  0.19045518  0.04103790    -0.44100
C517        C  0.49221460  0.50628912  0.09440137    -0.00500
C518        C  0.03304645  0.48373094  0.08314315    -0.12400
C519        C  0.03514099  0.48012274  0.05898691     0.01700
C520        C  0.49564713  0.49956252  0.04538663    -0.00600
C521        C  0.45512729  0.02256509  0.05663370    -0.12300
C522        C  0.45314927  0.02627586  0.08084203     0.01600
H523        H  0.06339684  0.46802470  0.09329926     0.14600
H524        H  0.42502678  0.03862710  0.04643766     0.14600
C525        C  0.41143776  0.05269657  0.09109568     0.36300
C526        C  0.07765425  0.45478161  0.04885008     0.36200
N527        N  0.37805918  0.07413337  0.09920308    -0.44100
N528        N  0.11179602  0.43437907  0.04086596    -0.44100
O529        O  0.45301024  0.93476505  0.16627044    -0.73300
O530        O  0.45278282  0.58355358  0.16631206    -0.74300
O531        O  0.45146541  0.50925796  0.13143989    -0.62900
O532        O  0.45488157  0.50903738  0.20112458    -0.71300
O533        O  0.03726333  0.00772570  0.20025245    -0.70800
O534        O  0.03390796  0.00709700  0.13088857    -0.62100
O535        O  0.03526404  0.58203203  0.16535939    -0.74600
O536        O  0.03550647  0.93315112  0.16569681    -0.73400
Cu537      Cu  0.45012161  0.50923667  0.16632700     1.04600
Cu538      Cu  0.03834407  0.00750340  0.16552274     1.04300
C539        C  0.99424290  0.91054816  0.16603913     0.92900
C540        C  0.99399906  0.60619896  0.16579291     0.92100
C541        C  0.49245315  0.00801360  0.12011980     0.84200
C542        C  0.99672978  0.50820113  0.21154106     0.90500
O543        O  0.03887099  0.75676377  0.19995512    -0.73300
O544        O  0.03203237  0.75785894  0.13076082    -0.74300
O545        O  0.03539147  0.83193008  0.16548809    -0.62900
O546        O  0.03522731  0.68314015  0.16509582    -0.71300
O547        O  0.45277001  0.68478478  0.16645781    -0.70800
O548        O  0.45293796  0.83360821  0.16685175    -0.62100
O549        O  0.44974360  0.75977945  0.13181221    -0.74600
O550        O  0.45637792  0.75852970  0.20150130    -0.73400
Cu551      Cu  0.03821291  0.75743040  0.16525720     1.04600
Cu552      Cu  0.45001133  0.75927778  0.16673195     1.04300
C553        C  0.99860407  0.75713592  0.21159201     0.92900
C554        C  0.49026471  0.75876238  0.12026400     0.92100
C555        C  0.49419244  0.85617954  0.16614322     0.84200
C556        C  0.49398003  0.66055780  0.16575763     0.90500
O557        O  0.29201336  0.00299900  0.13144739    -0.73300
O558        O  0.29180137  0.00381700  0.20092423    -0.74300
O559        O  0.29201341  0.92912860  0.16630217    -0.62900
O560        O  0.29185224  0.57798013  0.16605669    -0.71300
O561        O  0.20934958  0.57953699  0.16595472    -0.70800
O562        O  0.20950393  0.93072371  0.16640240    -0.62100
O563        O  0.20922467  0.00566105  0.20084804    -0.74600
O564        O  0.20973024  0.00446847  0.13152448    -0.73400
Cu565      Cu  0.29485861  0.00344843  0.16617630     1.04600
Cu566      Cu  0.20660051  0.00516017  0.16617083     1.04300
C567        C  0.25080792  0.00357506  0.12045897     0.92900
C568        C  0.25043926  0.00481631  0.21174015     0.92100
C569        C  0.25074803  0.90652768  0.16639015     0.84200
C570        C  0.25059765  0.60217562  0.16601193     0.90500
O571        O  0.20943894  0.82959933  0.16674329    -0.73300
O572        O  0.20935185  0.68077088  0.16638859    -0.74300
O573        O  0.21041923  0.75495095  0.20131574    -0.62900
O574        O  0.20834000  0.75554902  0.13188626    -0.71300
O575        O  0.29058444  0.75361255  0.13135015    -0.70800
O576        O  0.29298346  0.75353388  0.20082107    -0.62100
O577        O  0.29184826  0.67918205  0.16599451    -0.74600
O578        O  0.29193619  0.82797214  0.16611687    -0.73400
Cu579      Cu  0.20649983  0.75527762  0.16661298     1.04600
Cu580      Cu  0.29473429  0.75353080  0.16605304     1.04300
C581        C  0.25070917  0.85218504  0.16643379     0.92900
C582        C  0.25059414  0.65655962  0.16611596     0.92100
C583        C  0.25198674  0.75424211  0.21192879     0.84200
C584        C  0.24911068  0.75463917  0.12056997     0.90500
O585        O  0.42421366  0.54739130  0.28285295    -0.73300
O586        O  0.07306069  0.54748112  0.28250302    -0.74300
O587        O  0.99789677  0.54852137  0.24792066    -0.62900
O588        O  0.99884096  0.54654704  0.31742994    -0.71300
O589        O  0.00073447  0.96387710  0.31694722    -0.70800
O590        O  0.99928988  0.96573532  0.24740589    -0.62100
O591        O  0.07457217  0.96466336  0.28194056    -0.74600
O592        O  0.42579384  0.96458921  0.28249761    -0.73400
Cu593      Cu  0.99850433  0.55037529  0.28269321     1.04600
Cu594      Cu  0.00019996  0.96181939  0.28217404     1.04300
C595        C  0.40164955  0.50607405  0.28265834     0.92900
C596        C  0.09727970  0.50620243  0.28226102     0.92100
C597        C  0.99813123  0.50751636  0.23679255     0.84200
C598        C  0.99987154  0.50507255  0.32821998     0.90500
O599        O  0.42695676  0.79538702  0.28285354    -0.73300
O600        O  0.07598430  0.79557767  0.28266906    -0.74300
O601        O  0.00080095  0.79696890  0.24802275    -0.62900
O602        O  0.00132376  0.79485751  0.31740706    -0.71300
O603        O  0.00344294  0.71247501  0.31703062    -0.70800
O604        O  0.00239255  0.71435242  0.24737947    -0.62100
O605        O  0.07743922  0.71302830  0.28207365    -0.74600
O606        O  0.42884878  0.71281625  0.28243285    -0.73400
Cu607      Cu  0.00130581  0.79858891  0.28274826     1.04600
Cu608      Cu  0.00316944  0.71027350  0.28219967     1.04300
C609        C  0.40451359  0.75397465  0.28270566     0.92900
C610        C  0.10014196  0.75423114  0.28242518     0.92100
C611        C  0.00084404  0.75607283  0.23683199     0.84200
C612        C  0.00191349  0.75349321  0.32824216     0.90500
O613        O  0.24913186  0.54668035  0.24764800    -0.73300
O614        O  0.24843921  0.54814061  0.31711523    -0.74300
O615        O  0.32312910  0.54729906  0.28251396    -0.62900
O616        O  0.17433367  0.54745193  0.28222093    -0.71300
O617        O  0.17582821  0.96464631  0.28251393    -0.70800
O618        O  0.32465487  0.96451011  0.28278184    -0.62100
O619        O  0.25014897  0.96548096  0.31740326    -0.74600
O620        O  0.25070554  0.96393197  0.24792597    -0.73400
Cu621      Cu  0.24869460  0.55027461  0.28235822     1.04600
Cu622      Cu  0.25035446  0.96173397  0.28267238     1.04300
C623        C  0.25018248  0.00510623  0.23695879     0.92900
C624        C  0.24969731  0.50714348  0.32828274     0.92100
C625        C  0.34725291  0.00580400  0.28275517     0.84200
C626        C  0.15161759  0.00592477  0.28229164     0.90500
O627        O  0.32590878  0.79486133  0.28303188    -0.73300
O628        O  0.17730585  0.79514674  0.28272959    -0.74300
O629        O  0.25113920  0.79393512  0.31762877    -0.62900
O630        O  0.25193159  0.79528551  0.24813247    -0.71300
O631        O  0.25325692  0.71264558  0.24790608    -0.70800
O632        O  0.25318078  0.71154676  0.31735344    -0.62100
O633        O  0.17864464  0.71258361  0.28257228    -0.74600
O634        O  0.32768030  0.71229295  0.28261447    -0.73400
Cu635      Cu  0.25156799  0.79767697  0.28290134     1.04600
Cu636      Cu  0.25326251  0.70934673  0.28260555     1.04300
C637        C  0.35018927  0.75366919  0.28280445     0.92900
C638        C  0.15454986  0.75396764  0.28258014     0.92100
C639        C  0.25169043  0.75257963  0.32851068     0.84200
C640        C  0.25253984  0.75406942  0.23715883     0.90500
O641        O  0.99430598  0.54737780  0.44010658    -0.73300
O642        O  0.99461072  0.54539192  0.50963242    -0.74300
O643        O  0.06895976  0.54629401  0.47484706    -0.62900
O644        O  0.42014923  0.54683144  0.47492680    -0.71300
O645        O  0.42168975  0.96409774  0.47447722    -0.70800
O646        O  0.07049863  0.96356969  0.47407848    -0.62100
O647        O  0.49677176  0.96280832  0.50899885    -0.74600
O648        O  0.49563884  0.96488050  0.43958079    -0.73400
Cu649      Cu  0.99447255  0.54936328  0.47489247     1.04600
Cu650      Cu  0.49616662  0.96097384  0.47426636     1.04300
C651        C  0.99469828  0.00637394  0.42881620     0.92900
C652        C  0.49570116  0.00362003  0.52033863     0.92100
C653        C  0.09315266  0.00481982  0.47451915     0.84200
C654        C  0.39750740  0.00538454  0.47469262     0.90500
O655        O  0.00256195  0.70740706  0.43971156    -0.73300
O656        O  0.00049938  0.70766017  0.50918173    -0.74300
O657        O  0.42712016  0.70770157  0.47407724    -0.62900
O658        O  0.07583903  0.70668668  0.47487464    -0.71300
O659        O  0.07454010  0.78923781  0.47489163    -0.70800
O660        O  0.42561823  0.79025819  0.47415347    -0.62100
O661        O  0.99908941  0.79002330  0.50923009    -0.74600
O662        O  0.00092759  0.78978580  0.43977266    -0.73400
Cu663      Cu  0.00150415  0.70449315  0.47445788     1.04600
Cu664      Cu  0.00001385  0.79271338  0.47450314     1.04300
C665        C  0.00230134  0.74861187  0.42871732     0.92900
C666        C  0.99973808  0.74883439  0.52023807     0.92100
C667        C  0.40296225  0.74898331  0.47411829     0.84200
C668        C  0.09861304  0.74786673  0.47495693     0.90500
O669        O  0.32058510  0.96404882  0.47395080    -0.73300
O670        O  0.17176244  0.96360592  0.47360778    -0.74300
O671        O  0.24657822  0.96773932  0.43917508    -0.62900
O672        O  0.24594524  0.95967604  0.50842287    -0.71300
O673        O  0.24522428  0.54208330  0.51028821    -0.70800
O674        O  0.24389576  0.55038183  0.44062408    -0.62100
O675        O  0.17009112  0.54625809  0.47566205    -0.74600
O676        O  0.31887816  0.54677453  0.47528983    -0.73400
Cu677      Cu  0.24624792  0.96093803  0.47370676     1.04600
Cu678      Cu  0.24441432  0.54929253  0.47555560     1.04300
C679        C  0.34314739  0.00534626  0.47463886     0.92900
C680        C  0.14752416  0.00480699  0.47461430     0.92100
C681        C  0.24525713  0.00976601  0.42887165     0.84200
C682        C  0.24580236  0.99960847  0.52038403     0.90500
O683        O  0.32427034  0.79002157  0.47434551    -0.73300
O684        O  0.17556612  0.78907093  0.47501867    -0.74300
O685        O  0.25057027  0.78957487  0.50948195    -0.62900
O686        O  0.24933471  0.78913841  0.43995031    -0.71300
O687        O  0.25179777  0.70675594  0.43999297    -0.70800
O688        O  0.25195316  0.70720805  0.50938782    -0.62100
O689        O  0.17728288  0.70652039  0.47483034    -0.74600
O690        O  0.32615823  0.70746534  0.47450394    -0.73400
Cu691      Cu  0.24984263  0.79232930  0.47470031     1.04600
Cu692      Cu  0.25185820  0.70410613  0.47469053     1.04300
C693        C  0.34861634  0.74884692  0.47429104     0.92900
C694        C  0.15300184  0.74776436  0.47497810     0.92100
C695        C  0.25105114  0.74833610  0.52046657     0.84200
C696        C  0.25096231  0.74788269  0.42895263     0.90500
O697        O  0.03781588  0.99686514  0.00883828    -0.73300
O698        O  0.04037485  0.99592782  0.93945764    -0.74300
O699        O  0.03874486  0.57105222  0.97421143    -0.62900
O700        O  0.03909722  0.92211429  0.97416682    -0.71300
O701        O  0.45661929  0.92393465  0.97331332    -0.70800
O702        O  0.45624417  0.57264772  0.97384204    -0.62100
O703        O  0.45785712  0.99901719  0.93871569    -0.74600
O704        O  0.45552166  0.99834431  0.00842511    -0.73400
Cu705      Cu  0.04185074  0.99646675  0.97417680     1.04600
Cu706      Cu  0.45362455  0.99846806  0.97354903     1.04300
C707        C  0.99644673  0.99786091  0.01966874     0.92900
C708        C  0.99960214  0.99730428  0.92819154     0.92100
C709        C  0.99745898  0.59525252  0.97420699     0.84200
C710        C  0.99778968  0.89960927  0.97364708     0.90500
O711        O  0.45624433  0.82276170  0.97336178    -0.73300
O712        O  0.45609751  0.67383953  0.97419818    -0.74300
O713        O  0.45420920  0.74983187  0.00854717    -0.62900
O714        O  0.45787158  0.74725590  0.93917437    -0.71300
O715        O  0.04027364  0.74461255  0.93971517    -0.70800
O716        O  0.03648181  0.74815847  0.00911194    -0.62100
O717        O  0.03857710  0.67219739  0.97498393    -0.74600
O718        O  0.03873228  0.82088128  0.97382920    -0.73400
Cu719      Cu  0.45320944  0.74843385  0.97378785     1.04600
Cu720      Cu  0.04138678  0.74640664  0.97445859     1.04300
C721        C  0.99758352  0.84523508  0.97356082     0.92900
C722        C  0.99735160  0.64960936  0.97452362     0.92100
C723        C  0.49498059  0.74958371  0.01985892     0.84200
C724        C  0.99941204  0.74559190  0.92848263     0.90500
O725        O  0.21310748  0.99905324  0.00915781    -0.73300
O726        O  0.21203555  0.99910319  0.93987005    -0.74300
O727        O  0.21172845  0.92494768  0.97434445    -0.62900
O728        O  0.21261957  0.57362988  0.97459857    -0.71300
O729        O  0.29511068  0.57203233  0.97458088    -0.70800
O730        O  0.29422218  0.92311723  0.97382806    -0.62100
O731        O  0.29442801  0.99820748  0.93954527    -0.74600
O732        O  0.29539251  0.99671428  0.00890134    -0.73400
Cu733      Cu  0.20955547  0.99931886  0.97451297     1.04600
Cu734      Cu  0.29774155  0.99747597  0.97420931     1.04300
C735        C  0.25441836  0.99757864  0.02005168     0.92900
C736        C  0.25304707  0.99806129  0.92874289     0.92100
C737        C  0.25286326  0.90063331  0.97395942     0.84200
C738        C  0.25386707  0.59625337  0.97464045     0.90500
O739        O  0.21153441  0.75041777  0.00888259    -0.73300
O740        O  0.21194101  0.74719315  0.93933471    -0.74300
O741        O  0.21230265  0.67460541  0.97473654    -0.62900
O742        O  0.21150899  0.82354441  0.97355375    -0.71300
O743        O  0.29400401  0.82222886  0.97406849    -0.70800
O744        O  0.29479589  0.67352417  0.97434224    -0.62100
O745        O  0.29445784  0.74788602  0.93942418    -0.74600
O746        O  0.29379680  0.74839460  0.00892778    -0.73400
Cu747      Cu  0.20891217  0.74901760  0.97411606     1.04600
Cu748      Cu  0.29713267  0.74796542  0.97419175     1.04300
C749        C  0.25263404  0.74946643  0.01995653     0.92900
C750        C  0.25326843  0.74715470  0.92848332     0.92100
C751        C  0.25368820  0.65064461  0.97461521     0.84200
C752        C  0.25272778  0.84629021  0.97380749     0.90500
O753        O  0.46206733  0.56897913  0.78207752    -0.73300
O754        O  0.46243273  0.92024319  0.78414252    -0.74300
O755        O  0.46314892  0.99745839  0.81780307    -0.62900
O756        O  0.46147448  0.99238133  0.74836813    -0.71300
O757        O  0.04402760  0.99177493  0.74796379    -0.70800
O758        O  0.04567389  0.99375060  0.81755335    -0.62100
O759        O  0.04492115  0.91843705  0.78323281    -0.74600
O760        O  0.04458453  0.56730752  0.78219956    -0.73400
Cu761      Cu  0.45942104  0.99474194  0.78311526     1.04600
Cu762      Cu  0.04775290  0.99277952  0.78273862     1.04300
C763        C  0.00332943  0.59154401  0.78198461     0.92900
C764        C  0.00361825  0.89592498  0.78382916     0.92100
C765        C  0.00456761  0.99635447  0.82856468     0.84200
C766        C  0.00250848  0.99171598  0.73729466     0.90500
O767        O  0.04478032  0.74042728  0.81747926    -0.73300
O768        O  0.04374291  0.74478876  0.74791684    -0.74300
O769        O  0.04460139  0.81718607  0.78362678    -0.62900
O770        O  0.04454997  0.66847313  0.78182436    -0.71300
O771        O  0.46204153  0.67013501  0.78225884    -0.70800
O772        O  0.46209508  0.81904583  0.78368220    -0.62100
O773        O  0.46117023  0.74627893  0.74832432    -0.74600
O774        O  0.46235127  0.74323245  0.81754025    -0.73400
Cu775      Cu  0.04734855  0.74267856  0.78269644     1.04600
Cu776      Cu  0.45904288  0.74469655  0.78295905     1.04300
C777        C  0.00355464  0.74116361  0.82846276     0.92900
C778        C  0.00217778  0.74618098  0.73727115     0.92100
C779        C  0.00343476  0.84153278  0.78381190     0.84200
C780        C  0.00329503  0.64590180  0.78193127     0.90500
O781        O  0.21128095  0.99163383  0.74852780    -0.73300
O782        O  0.21308687  0.99250690  0.81794318    -0.74300
O783        O  0.21249299  0.56639945  0.78311532    -0.62900
O784        O  0.21188963  0.91767461  0.78353236    -0.71300
O785        O  0.29439932  0.91604214  0.78327125    -0.70800
O786        O  0.29498321  0.56492464  0.78233086    -0.62100
O787        O  0.29546622  0.99177588  0.81741892    -0.74600
O788        O  0.29384781  0.98944126  0.74806399    -0.73400
Cu789      Cu  0.20925671  0.99207603  0.78327798     1.04600
Cu790      Cu  0.29754305  0.99041380  0.78275121     1.04300
C791        C  0.25229890  0.99052355  0.73743918     0.92900
C792        C  0.25458666  0.99289988  0.82864895     0.92100
C793        C  0.25370772  0.58908104  0.78268208     0.84200
C794        C  0.25310343  0.89346034  0.78354208     0.90500
O795        O  0.29595039  0.74072645  0.81764527    -0.73300
O796        O  0.29244179  0.74155778  0.74802189    -0.74300
O797        O  0.29430597  0.81503965  0.78301358    -0.62900
O798        O  0.29467234  0.66631248  0.78263005    -0.71300
O799        O  0.21216533  0.66748474  0.78290196    -0.70800
O800        O  0.21183260  0.81640047  0.78434153    -0.62100
O801        O  0.20990504  0.74389094  0.74892522    -0.74600
O802        O  0.21344076  0.73999321  0.81832304    -0.73400
Cu803      Cu  0.29726406  0.74076977  0.78279466     1.04600
Cu804      Cu  0.20894714  0.74194493  0.78366129     1.04300
C805        C  0.25508000  0.74022006  0.82887570     0.92900
C806        C  0.25061070  0.74361863  0.73761085     0.92100
C807        C  0.25304961  0.83911587  0.78369494     0.84200
C808        C  0.25352870  0.64347702  0.78270194     0.90500
O809        O  0.42604733  0.53441258  0.66686767    -0.73300
O810        O  0.07491106  0.53466212  0.66661193    -0.74300
O811        O  0.00003211  0.53597201  0.63202668    -0.62900
O812        O  0.50080876  0.53347158  0.70140307    -0.71300
O813        O  0.50227362  0.95092539  0.70092054    -0.70800
O814        O  0.50278026  0.95350821  0.63126498    -0.62100
O815        O  0.07672177  0.95216464  0.66621109    -0.74600
O816        O  0.42796196  0.95186138  0.66597203    -0.73400
Cu817      Cu  0.00038605  0.53749882  0.66674584     1.04600
Cu818      Cu  0.50247000  0.94919799  0.66606178     1.04300
C819        C  0.40367300  0.99307367  0.66648015     0.92900
C820        C  0.09929808  0.99346267  0.66642291     0.92100
C821        C  0.50146933  0.99517215  0.62062994     0.84200
C822        C  0.50193046  0.99198552  0.71203657     0.90500
O823        O  0.07444597  0.70858977  0.66558374    -0.73300
O824        O  0.42584886  0.70828776  0.66660582    -0.74300
O825        O  0.99886770  0.71066479  0.63142440    -0.62900
O826        O  0.00154049  0.70674539  0.70075627    -0.71300
O827        O  0.99989062  0.78936842  0.70167058    -0.70800
O828        O  0.99687240  0.79301887  0.63215211    -0.62100
O829        O  0.42398723  0.79083681  0.66752284    -0.74600
O830        O  0.07298795  0.79113612  0.66638096    -0.73400
Cu831      Cu  0.00021687  0.70572832  0.66604801     1.04600
Cu832      Cu  0.99837088  0.79403276  0.66696415     1.04300
C833        C  0.09714172  0.74979899  0.66598671     0.92900
C834        C  0.40152108  0.74944208  0.66714303     0.92100
C835        C  0.99726822  0.75228549  0.62075939     0.84200
C836        C  0.00132138  0.74750997  0.71206265     0.90500
O837        O  0.25166967  0.95350425  0.63142157    -0.73300
O838        O  0.25269104  0.95038590  0.70098727    -0.74300
O839        O  0.17777582  0.95208940  0.66637958    -0.62900
O840        O  0.32663301  0.95174786  0.66600253    -0.71300
O841        O  0.32496126  0.53427349  0.66708497    -0.70800
O842        O  0.17618749  0.53456356  0.66692534    -0.62100
O843        O  0.25044820  0.53298085  0.70172007    -0.74600
O844        O  0.25086398  0.53577927  0.63236070    -0.73400
Cu845      Cu  0.25222563  0.94901144  0.66617866     1.04600
Cu846      Cu  0.25054449  0.53726431  0.66705776     1.04300
C847        C  0.25161299  0.99526814  0.62087281     0.92900
C848        C  0.25173859  0.99128274  0.71221554     0.92100
C849        C  0.15365718  0.99341439  0.66657167     0.84200
C850        C  0.34929840  0.99300698  0.66654305     0.90500
O851        O  0.24995064  0.70513487  0.70087545    -0.73300
O852        O  0.25071433  0.70972194  0.63161438    -0.74300
O853        O  0.32464389  0.70781774  0.66646575    -0.62900
O854        O  0.17560018  0.70811687  0.66593678    -0.71300
O855        O  0.17435252  0.79065332  0.66683082    -0.70800
O856        O  0.32294703  0.79035263  0.66767583    -0.62100
O857        O  0.24980284  0.79207595  0.63243949    -0.74600
O858        O  0.24811106  0.78772053  0.70213563    -0.73400
Cu859      Cu  0.25021300  0.70482782  0.66618674     1.04600
Cu860      Cu  0.24868487  0.79311372  0.66732309     1.04300
C861        C  0.24935666  0.74562128  0.71237244     0.92900
C862        C  0.25083290  0.75135140  0.62099945     0.92100
C863        C  0.34718892  0.74916066  0.66714271     0.84200
C864        C  0.15154793  0.74951585  0.66621100     0.92900
C865        C  0.25354544  0.74598394  0.90301962    -0.00500
C866        C  0.23908342  0.70254608  0.89161442    -0.12400
C867        C  0.24011267  0.69966159  0.86737862     0.01700
C868        C  0.25569693  0.74080083  0.85433501    -0.00600
C869        C  0.27011033  0.78422100  0.86574237    -0.12300
C870        C  0.26875285  0.78722958  0.88995690     0.01600
H871        H  0.22759963  0.67071927  0.90166201     0.14600
H872        H  0.28129436  0.81615887  0.85569325     0.14600
C873        C  0.28078008  0.83364925  0.90099194     0.36300
C874        C  0.22654590  0.65377937  0.85626038     0.36200
N875        N  0.29000431  0.87095962  0.90983691    -0.44100
N876        N  0.21594103  0.61699615  0.84729536    -0.44100
C877        C  0.25281668  0.99646777  0.90315532    -0.00500
C878        C  0.29057955  0.52042104  0.89101718    -0.12400
C879        C  0.29204976  0.51974230  0.86679480     0.01700
C880        C  0.25502735  0.99454735  0.85424745    -0.00600
C881        C  0.21727949  0.97058975  0.86642758    -0.12300
C882        C  0.21608818  0.97095834  0.89064247     0.01600
H883        H  0.31866508  0.54052092  0.90048253     0.14600
H884        H  0.18912026  0.95053573  0.85699198     0.14600
C885        C  0.17854122  0.94239970  0.90216485     0.36300
C886        C  0.33020724  0.54739731  0.85525688     0.36200
N887        N  0.14887282  0.91915216  0.91148881    -0.44100
N888        N  0.36040102  0.56971955  0.84581551    -0.44100
C889        C  0.00305565  0.74092934  0.85404171    -0.00500
C890        C  0.46702715  0.77018526  0.86548970    -0.12400
C891        C  0.46540176  0.77239553  0.88966224     0.01700
C892        C  0.00016152  0.74463899  0.90289524    -0.00600
C893        C  0.03603515  0.71503013  0.89147039    -0.12300
C894        C  0.03748209  0.71261863  0.86723074     0.01600
H895        H  0.44064695  0.79229319  0.85549774     0.14600
H896        H  0.06226108  0.69284692  0.90150753     0.14600
C897        C  0.07243447  0.67849630  0.85640588     0.36300
C898        C  0.42937604  0.80548189  0.90039251     0.36200
N899        N  0.09985072  0.65062231  0.84769504    -0.44100
N900        N  0.40091677  0.83223627  0.90911895    -0.44100
C901        C  0.00467703  0.99777405  0.85401739    -0.00500
C902        C  0.01904014  0.95487923  0.86623705    -0.12400
C903        C  0.01693115  0.95390258  0.89047399     0.01700
C904        C  0.00096369  0.99663903  0.90273115    -0.00600
C905        C  0.48710822  0.53966741  0.89051557    -0.12300
C906        C  0.48892169  0.54056279  0.86625823     0.01600
H907        H  0.03069891  0.92180965  0.85681383     0.14600
H908        H  0.47508471  0.57260734  0.89994172     0.14600
C909        C  0.47530220  0.58588865  0.85428111     0.36300
C910        C  0.02908813  0.90806276  0.90235957     0.36200
N911        N  0.46435290  0.62208092  0.84458298    -0.44100
N912        N  0.03849683  0.87124421  0.91187751    -0.44100
C913        C  0.25078464  0.74843884  0.54618776    -0.00500
C914        C  0.27022940  0.78945070  0.55798663    -0.12400
C915        C  0.27090384  0.79137229  0.58224874     0.01700
C916        C  0.25152556  0.75168511  0.59527727    -0.00600
C917        C  0.23227602  0.71063059  0.58345842    -0.12300
C918        C  0.23144144  0.70876340  0.55924049     0.01600
H919        H  0.28562782  0.81991815  0.54823565     0.14600
H920        H  0.21686268  0.68010847  0.59317138     0.14600
C921        C  0.20831828  0.66665245  0.54842084     0.36300
C922        C  0.29349609  0.83363986  0.59315982     0.36200
N923        N  0.18951660  0.63302633  0.53980435    -0.44100
N924        N  0.31178063  0.86746042  0.60185722    -0.44100
C925        C  0.25143527  0.99651000  0.59516164    -0.00500
C926        C  0.23044025  0.95682004  0.58300585    -0.12400
C927        C  0.22806545  0.95678576  0.55875590     0.01700
C928        C  0.24717903  0.99719530  0.54608366    -0.00600
C929        C  0.26842783  0.53665886  0.55825415    -0.12300
C930        C  0.27088199  0.53657841  0.58247232     0.01600
H931        H  0.21484432  0.92605128  0.59249504     0.14600
H932        H  0.28396572  0.56752269  0.54881401     0.14600
C933        C  0.29530814  0.57745971  0.59367401     0.36300
C934        C  0.20391787  0.91571652  0.54757394     0.36200
N935        N  0.31500504  0.61020391  0.60258466    -0.44100
N936        N  0.18437338  0.88274677  0.53876922    -0.44100
C937        C  0.99694688  0.75259673  0.59503675    -0.00500
C938        C  0.01730801  0.71116261  0.58336028    -0.12400
C939        C  0.01901051  0.70918258  0.55917123     0.01700
C940        C  0.99931374  0.74913650  0.54595678    -0.00600
C941        C  0.47887273  0.79064583  0.55759889    -0.12300
C942        C  0.47740124  0.79273771  0.58185181     0.01600
H943        H  0.03304326  0.68032969  0.59319562     0.14600
H944        H  0.46332467  0.82148777  0.54770617     0.14600
C945        C  0.45418307  0.83583589  0.59253352     0.36300
C946        C  0.04329302  0.66657679  0.54857099     0.36200
N947        N  0.43553666  0.87051401  0.60093570    -0.44100
N948        N  0.06291819  0.63244385  0.54016399    -0.44100
C949        C  0.50084735  0.99670791  0.59495125    -0.00500
C950        C  0.47609623  0.53665638  0.58392300    -0.12400
C951        C  0.47355334  0.53963918  0.55973071     0.01700
C952        C  0.49664007  0.00228480  0.54600377    -0.00600
C953        C  0.02205693  0.96280206  0.55700748    -0.12300
C954        C  0.02460339  0.95983991  0.58119877     0.01600
H955        H  0.45754521  0.56506200  0.59425328     0.14600
H956        H  0.04081656  0.93454345  0.54666946     0.14600
C957        C  0.05361187  0.91968016  0.59129085     0.36300
C958        C  0.44483698  0.58000590  0.54962901     0.36200
N959        N  0.07697150  0.88747609  0.59927426    -0.44100
N960        N  0.42169256  0.61231646  0.54160349    -0.44100
C961        C  0.25157320  0.74810780  0.40325550    -0.00500
C962        C  0.22921333  0.78845943  0.39158457    -0.12400
C963        C  0.22847021  0.79061354  0.36736372     0.01700
C964        C  0.25089591  0.75192360  0.35421077    -0.00600
C965        C  0.27315967  0.71145315  0.36587543    -0.12300
C966        C  0.27404072  0.70939115  0.39011999     0.01600
H967        H  0.21147719  0.81818449  0.40141432     0.14600
H968        H  0.29081086  0.68168976  0.35603638     0.14600
C969        C  0.29986078  0.66799409  0.40094173     0.36300
C970        C  0.20266618  0.83208373  0.35660147     0.36200
N971        N  0.32027325  0.63471306  0.40964658    -0.44100
N972        N  0.18198211  0.86533245  0.34800489    -0.44100
C973        C  0.24957074  0.00751846  0.35404441    -0.00500
C974        C  0.22892246  0.54921358  0.36559959    -0.12400
C975        C  0.22675834  0.55111575  0.38985608     0.01700
C976        C  0.24640555  0.01083614  0.40313993    -0.00600
C977        C  0.26820020  0.97005908  0.39149764    -0.12300
C978        C  0.27010251  0.96805683  0.36730935     0.01600
H979        H  0.21309614  0.57983889  0.35566323     0.14600
H980        H  0.28444475  0.93954487  0.40136499     0.14600
C981        C  0.29483268  0.92563875  0.35676976     0.36300
C982        C  0.20223704  0.59354423  0.40045377     0.36200
N983        N  0.31464709  0.89151340  0.34845271    -0.44100
N984        N  0.18267127  0.62781501  0.40876255    -0.44100
C985        C  0.00128809  0.75286809  0.35394892    -0.00500
C986        C  0.02321968  0.71216203  0.36553602    -0.12400
C987        C  0.02435284  0.70997966  0.38976660     0.01700
C988        C  0.00288476  0.74907078  0.40300725    -0.00600
C989        C  0.48090637  0.78975563  0.39141773    -0.12300
C990        C  0.47944471  0.79178507  0.36719497     0.01600
H991        H  0.04026844  0.68213323  0.35563025     0.14600
H992        H  0.46372163  0.81971681  0.40132242     0.14600
C993        C  0.45321996  0.83318189  0.35657468     0.36300
C994        C  0.04907447  0.66779357  0.40044287     0.36200
N995        N  0.43216702  0.86643505  0.34816871    -0.44100
N996        N  0.06851153  0.63375352  0.40898163    -0.44100
C997        C  0.99494461  0.00664750  0.40307976    -0.00500
C998        C  0.01509189  0.96515495  0.39135380    -0.12400
C999        C  0.01778770  0.96382038  0.36714228     0.01700
C1000       C  0.99921059  0.00441839  0.35398814    -0.00600
C1001       C  0.47883207  0.54612572  0.36569986    -0.12300
C1002       C  0.47632948  0.54747675  0.38992700     0.01600
H1003       H  0.02995709  0.93387926  0.40116282     0.14600
H1004       H  0.46400444  0.57743599  0.35590254     0.14600
C1005       C  0.45305934  0.59042685  0.40068907     0.36300
C1006       C  0.04192619  0.92122468  0.35647450     0.36200
N1007       N  0.43468495  0.62498114  0.40931381    -0.44100
N1008       N  0.06135877  0.88705961  0.34800062    -0.44100
C1009       C  0.24881676  0.75386583  0.09481984    -0.00500
C1010       C  0.29115874  0.73529467  0.08324117    -0.12400
C1011       C  0.29302174  0.73263158  0.05905238     0.01700
C1012       C  0.25225450  0.75011314  0.04571210    -0.00600
C1013       C  0.20977300  0.76852520  0.05727164    -0.12300
C1014       C  0.20749800  0.77022117  0.08151033     0.01600
H1015       H  0.32272553  0.72148501  0.09314709     0.14600
H1016       H  0.17811291  0.78200462  0.04733754     0.14600
C1017       C  0.16253484  0.78975373  0.09204570     0.36300
C1018       C  0.33615089  0.70900876  0.04863212     0.36200
N1019       N  0.12643012  0.80529460  0.10044610    -0.44100
N1020       N  0.37049717  0.68949834  0.04037844    -0.44100
C1021       C  0.25095953  0.00242797  0.09475977    -0.00500
C1022       C  0.29294218  0.98268790  0.08328478    -0.12400
C1023       C  0.29491571  0.98000226  0.05908435     0.01700
C1024       C  0.25431775  0.99793416  0.04574759    -0.00600
C1025       C  0.21219883  0.51761500  0.05723466    -0.12300
C1026       C  0.21019759  0.52016707  0.08140530     0.01600
H1027       H  0.32420565  0.96840738  0.09327441     0.14600
H1028       H  0.18086656  0.53185740  0.04728100     0.14600
C1029       C  0.16641891  0.54260552  0.09180808     0.36300
C1030       C  0.33820598  0.95670368  0.04863528     0.36200
N1031       N  0.13128924  0.56071441  0.10002445    -0.44100
N1032       N  0.37282417  0.93770087  0.04037181    -0.44100
C1033       C  0.48982815  0.75713757  0.09456681    -0.00500
C1034       C  0.03085488  0.73499473  0.08331379    -0.12400
C1035       C  0.03353264  0.73234634  0.05918428     0.01700
C1036       C  0.49398316  0.75148596  0.04556347    -0.00600
C1037       C  0.45275150  0.77361959  0.05677952    -0.12300
C1038       C  0.45050595  0.77702435  0.08101475     0.01600
H1039       H  0.06118467  0.71923663  0.09345377     0.14600
H1040       H  0.42256231  0.78940704  0.04655886     0.14600
C1041       C  0.40879092  0.80341061  0.09129346     0.36300
C1042       C  0.07711658  0.70887332  0.04909279     0.36200
N1043       N  0.37550123  0.82499521  0.09940107    -0.44100
N1044       N  0.11223072  0.69024043  0.04111368    -0.44100
C1045       C  0.49242808  0.00630924  0.09440318    -0.00500
C1046       C  0.03314108  0.98353475  0.08314082    -0.12400
C1047       C  0.03519228  0.97991035  0.05898062     0.01700
C1048       C  0.49579172  0.99957446  0.04539013    -0.00600
C1049       C  0.45484612  0.52232700  0.05662487    -0.12300
C1050       C  0.45282963  0.52602923  0.08083540     0.01600
H1051       H  0.06340440  0.96765456  0.09329626     0.14600
H1052       H  0.42466907  0.53822624  0.04642418     0.14600
C1053       C  0.41096773  0.55221647  0.09108391     0.36300
C1054       C  0.07751844  0.95428290  0.04882594     0.36200
N1055       N  0.37746882  0.57346948  0.09918689    -0.44100
N1056       N  0.11150012  0.93363883  0.04082507    -0.44100
O1057       O  0.95305995  0.43477454  0.16629204    -0.73300
O1058       O  0.95279487  0.08356142  0.16628538    -0.74300
O1059       O  0.95160382  0.00926085  0.13141757    -0.62900
O1060       O  0.95472610  0.00900710  0.20111280    -0.71300
O1061       O  0.53741842  0.50776363  0.20021587    -0.70800
O1062       O  0.53376686  0.50714822  0.13086330    -0.62100
O1063       O  0.53527643  0.08201417  0.16537783    -0.74600
O1064       O  0.53555476  0.43318580  0.16565748    -0.73400
Cu1065     Cu  0.95010775  0.00923260  0.16630387     1.04600
Cu1066     Cu  0.53835742  0.50753789  0.16548864     1.04300
C1067       C  0.49429942  0.41057123  0.16602565     0.92900
C1068       C  0.49401782  0.10619876  0.16577319     0.92100
C1069       C  0.99228258  0.50802869  0.12011816     0.84200
C1070       C  0.49654596  0.00813398  0.21155560     0.90500
O1071       O  0.53887409  0.25674795  0.19991819    -0.73300
O1072       O  0.53213811  0.25792785  0.13071112    -0.74300
O1073       O  0.53545745  0.33195390  0.16546175    -0.62900
O1074       O  0.53526380  0.18314563  0.16504616    -0.71300
O1075       O  0.95280602  0.18480856  0.16637563    -0.70800
O1076       O  0.95300256  0.33363452  0.16680775    -0.62100
O1077       O  0.94984874  0.25988189  0.13173602    -0.74600
O1078       O  0.95638046  0.25851626  0.20143874    -0.73400
Cu1079     Cu  0.53826599  0.25744894  0.16521597     1.04600
Cu1080     Cu  0.95006457  0.25931122  0.16666308     1.04300
C1081       C  0.49859146  0.25710652  0.21154419     0.92900
C1082       C  0.99038668  0.25888656  0.12019911     0.92100
C1083       C  0.99425808  0.35620397  0.16611537     0.84200
C1084       C  0.99401150  0.16056776  0.16570363     0.90500
O1085       O  0.79199764  0.50310736  0.13143813    -0.73300
O1086       O  0.79165787  0.50379268  0.20090890    -0.74300
O1087       O  0.79195457  0.42915532  0.16625918    -0.62900
O1088       O  0.79194744  0.07796487  0.16602410    -0.71300
O1089       O  0.70944577  0.07952275  0.16594182    -0.70800
O1090       O  0.70944547  0.43072807  0.16634304    -0.62100
O1091       O  0.70907957  0.50562458  0.20082044    -0.74600
O1092       O  0.70971366  0.50455812  0.13150303    -0.73400
Cu1093     Cu  0.79477941  0.50347668  0.16616864     1.04600
Cu1094     Cu  0.70651991  0.50517300  0.16614469     1.04300
C1095       C  0.75079907  0.50370781  0.12044434     0.92900
C1096       C  0.75028818  0.50480693  0.21171686     0.92100
C1097       C  0.75069627  0.40654155  0.16632954     0.84200
C1098       C  0.75069269  0.10216310  0.16597174     0.90500
O1099       O  0.70941771  0.32958898  0.16666486    -0.73300
O1100       O  0.70942192  0.18074845  0.16630544    -0.74300
O1101       O  0.71040267  0.25492559  0.20123703    -0.62900
O1102       O  0.70837039  0.25553686  0.13180948    -0.71300
O1103       O  0.79061506  0.25362840  0.13127100    -0.70800
O1104       O  0.79296476  0.25356082  0.20075839    -0.62100
O1105       O  0.79191755  0.17919535  0.16592300    -0.74600
O1106       O  0.79191426  0.32799861  0.16604153    -0.73400
Cu1107     Cu  0.70651853  0.25525905  0.16653206     1.04600
Cu1108     Cu  0.79475128  0.25355448  0.16598036     1.04300
C1109       C  0.75067739  0.35219495  0.16635925     0.92900
C1110       C  0.75067468  0.15655251  0.16604577     0.92100
C1111       C  0.75195702  0.25423993  0.21186091     0.84200
C1112       C  0.74913762  0.25463429  0.12049232     0.90500
O1113       O  0.92415162  0.04715760  0.28294821    -0.73300
O1114       O  0.57299159  0.04721386  0.28248903    -0.74300
O1115       O  0.49771772  0.04835468  0.24796092    -0.62900
O1116       O  0.49887316  0.04622391  0.31746338    -0.71300
O1117       O  0.50068347  0.46419956  0.31692747    -0.70800
O1118       O  0.49951114  0.46589931  0.24740486    -0.62100
O1119       O  0.57464298  0.46492909  0.28199634    -0.74600
O1120       O  0.92587150  0.46482281  0.28241871    -0.73400
Cu1121     Cu  0.49843712  0.05012248  0.28273323     1.04600
Cu1122     Cu  0.50027937  0.46207021  0.28216506     1.04300
C1123       C  0.90158056  0.00584554  0.28276335     0.92900
C1124       C  0.59721108  0.00593702  0.28221263     0.92100
C1125       C  0.49790706  0.00737843  0.23681158     0.84200
C1126       C  0.49991311  0.00474327  0.32824730     0.90500
O1127       O  0.92685784  0.29529032  0.28280502    -0.73300
O1128       O  0.57590548  0.29553618  0.28263719    -0.74300
O1129       O  0.50072792  0.29692119  0.24798220    -0.62900
O1130       O  0.50122049  0.29484611  0.31736963    -0.71300
O1131       O  0.50334183  0.21246745  0.31700856    -0.70800
O1132       O  0.50234703  0.21430649  0.24733748    -0.62100
O1133       O  0.57735138  0.21298713  0.28205120    -0.74600
O1134       O  0.92878328  0.21272002  0.28238420    -0.73400
Cu1135     Cu  0.50121363  0.29854009  0.28270867     1.04600
Cu1136     Cu  0.50309401  0.21022713  0.28216681     1.04300
C1137       C  0.90443195  0.25386527  0.28265270     0.92900
C1138       C  0.60005930  0.25418384  0.28239677     0.92100
C1139       C  0.50079683  0.25602882  0.23678870     0.84200
C1140       C  0.50182245  0.25349672  0.32821566     0.90500
O1141       O  0.74922856  0.04657472  0.24770337    -0.73300
O1142       O  0.74820015  0.04784923  0.31716953    -0.74300
O1143       O  0.82306267  0.04708377  0.28264380    -0.62900
O1144       O  0.67425894  0.04720444  0.28220255    -0.71300
O1145       O  0.67588375  0.46489456  0.28257213    -0.70800
O1146       O  0.82472092  0.46472652  0.28270032    -0.62100
O1147       O  0.75035268  0.46577719  0.31738309    -0.74600
O1148       O  0.75060314  0.46403717  0.24792308    -0.73400
Cu1149     Cu  0.74862315  0.05005800  0.28241558     1.04600
Cu1150     Cu  0.75041019  0.46195202  0.28266244     1.04300
C1151       C  0.75004014  0.50517700  0.23693135     0.92900
C1152       C  0.74944236  0.00683192  0.32831900     0.92100
C1153       C  0.84732007  0.50602183  0.28263966     0.84200
C1154       C  0.65168357  0.50617979  0.28234208     0.90500
O1155       O  0.82582533  0.29471781  0.28299634    -0.73300
O1156       O  0.67724285  0.29505833  0.28270585    -0.74300
O1157       O  0.75108095  0.29367965  0.31761049    -0.62900
O1158       O  0.75186428  0.29522728  0.24809148    -0.71300
O1159       O  0.75316447  0.21259069  0.24783082    -0.70800
O1160       O  0.75311305  0.21129391  0.31729205    -0.62100
O1161       O  0.67854805  0.21249632  0.28251285    -0.74600
O1162       O  0.82760543  0.21215060  0.28253787    -0.73400
Cu1163     Cu  0.75150028  0.29753827  0.28287337     1.04600
Cu1164     Cu  0.75317699  0.20921142  0.28253487     1.04300
C1165       C  0.85010942  0.25353228  0.28274731     0.92900
C1166       C  0.65446902  0.25389287  0.28254364     0.92100
C1167       C  0.75162432  0.25229561  0.32847380     0.84200
C1168       C  0.75247630  0.25403215  0.23709758     0.90500
O1169       O  0.49433850  0.04722526  0.44012950    -0.73300
O1170       O  0.49452539  0.04521945  0.50966596    -0.74300
O1171       O  0.56897384  0.04610715  0.47490275    -0.62900
O1172       O  0.92014643  0.04664963  0.47493186    -0.71300
O1173       O  0.92167232  0.46428106  0.47446619    -0.70800
O1174       O  0.57049709  0.46375566  0.47402526    -0.62100
O1175       O  0.99683145  0.46298508  0.50897334    -0.74600
O1176       O  0.99560389  0.46503435  0.43954479    -0.73400
Cu1177     Cu  0.49446784  0.04919486  0.47492210     1.04600
Cu1178     Cu  0.99616372  0.46114421  0.47423551     1.04300
C1179       C  0.49467524  0.50653607  0.42878666     0.92900
C1180       C  0.99582089  0.50380098  0.52031141     0.92100
C1181       C  0.59314237  0.50501302  0.47445981     0.84200
C1182       C  0.89749745  0.50557509  0.47468739     0.90500
O1183       O  0.50249780  0.20738302  0.43968783    -0.73300
O1184       O  0.50051288  0.20747169  0.50916410    -0.74300
O1185       O  0.92708591  0.20758473  0.47407808    -0.62900
O1186       O  0.57580693  0.20658288  0.47483791    -0.71300
O1187       O  0.57449971  0.28913433  0.47490590    -0.70800
O1188       O  0.92558030  0.29014155  0.47414689    -0.62100
O1189       O  0.49901660  0.28984254  0.50922271    -0.74600
O1190       O  0.50092517  0.28975920  0.43977747    -0.73400
Cu1191     Cu  0.50147335  0.20438184  0.47443632     1.04600
Cu1192     Cu  0.49997367  0.29260399  0.47450616     1.04300
C1193       C  0.50228384  0.24860579  0.42870668     0.92900
C1194       C  0.49971201  0.24864521  0.52022152     0.92100
C1195       C  0.90292616  0.24886594  0.47412120     0.84200
C1196       C  0.59857657  0.24776518  0.47494419     0.90500
O1197       O  0.82055881  0.46427229  0.47391023    -0.73300
O1198       O  0.67175267  0.46382744  0.47354238    -0.74300
O1199       O  0.74657331  0.46808589  0.43912969    -0.62900
O1200       O  0.74590074  0.45982085  0.50836798    -0.71300
O1201       O  0.74531005  0.04194555  0.51029673    -0.70800
O1202       O  0.74385028  0.05004015  0.44063998    -0.62100
O1203       O  0.67011656  0.04603868  0.47570623    -0.74600
O1204       O  0.81888662  0.04655632  0.47527368    -0.73400
Cu1205     Cu  0.74622522  0.46117689  0.47365304     1.04600
Cu1206     Cu  0.74443484  0.04905987  0.47556656     1.04300
C1207       C  0.84313211  0.50555924  0.47463123     0.92900
C1208       C  0.64750855  0.50502075  0.47455479     0.92100
C1209       C  0.74530310  0.51012927  0.42883971     0.84200
C1210       C  0.74573036  0.49971975  0.52035365     0.90500
O1211       O  0.82423533  0.28990660  0.47433605    -0.73300
O1212       O  0.67552902  0.28897270  0.47498539    -0.74300
O1213       O  0.75049764  0.28955989  0.50946394    -0.62900
O1214       O  0.74932950  0.28892475  0.43991827    -0.71300
O1215       O  0.75179227  0.20654555  0.44000402    -0.70800
O1216       O  0.75188843  0.20719873  0.50939984    -0.62100
O1217       O  0.67724681  0.20642236  0.47483266    -0.74600
O1218       O  0.82612090  0.20735129  0.47453255    -0.73400
Cu1219     Cu  0.74980659  0.29222082  0.47467502     1.04600
Cu1220     Cu  0.75182220  0.20400119  0.47470637     1.04300
C1221       C  0.84858028  0.24873109  0.47430120     0.92900
C1222       C  0.65296514  0.24766609  0.47496274     0.92100
C1223       C  0.75097363  0.24834109  0.52046602     0.84200
C1224       C  0.75095430  0.24764155  0.42893932     0.90500
O1225       O  0.53776162  0.49685951  0.00885721    -0.73300
O1226       O  0.54061752  0.49589636  0.93948118    -0.74300
O1227       O  0.53861871  0.07107564  0.97417688    -0.62900
O1228       O  0.53915910  0.42210291  0.97418478    -0.71300
O1229       O  0.95668349  0.42396220  0.97326149    -0.70800
O1230       O  0.95611838  0.07265725  0.97385263    -0.62100
O1231       O  0.95810489  0.49904941  0.93867930    -0.74600
O1232       O  0.95547259  0.49832628  0.00839215    -0.73400
Cu1233     Cu  0.54194556  0.49644706  0.97420309     1.04600
Cu1234     Cu  0.95372238  0.49847734  0.97351215     1.04300
C1235       C  0.49636286  0.49785445  0.01966296     0.92900
C1236       C  0.49988464  0.49729778  0.92818414     0.92100
C1237       C  0.49733031  0.09527312  0.97417685     0.84200
C1238       C  0.49784115  0.39962212  0.97362118     0.90500
O1239       O  0.95624352  0.32281801  0.97332901    -0.73300
O1240       O  0.95598809  0.17389044  0.97413038    -0.74300
O1241       O  0.95425015  0.24986937  0.00849428    -0.62900
O1242       O  0.95769821  0.24740032  0.93911409    -0.71300
O1243       O  0.54010341  0.24466106  0.93961855    -0.70800
O1244       O  0.53652397  0.24816910  0.00901906    -0.62100
O1245       O  0.53846745  0.17221054  0.97488788    -0.74600
O1246       O  0.53873428  0.32088069  0.97374520    -0.73400
Cu1247     Cu  0.95314769  0.24850320  0.97373484     1.04600
Cu1248     Cu  0.54132727  0.24641751  0.97436195     1.04300
C1249       C  0.49760071  0.34525849  0.97351210     0.92900
C1250       C  0.49723166  0.14963829  0.97445463     0.92100
C1251       C  0.99504709  0.24963131  0.01978638     0.84200
C1252       C  0.49921734  0.24572751  0.92840529     0.90500
O1253       O  0.71289692  0.49907970  0.00915529    -0.73300
O1254       O  0.71187183  0.49908305  0.93984345    -0.74300
O1255       O  0.71149544  0.42494126  0.97433013    -0.62900
O1256       O  0.71281656  0.07360733  0.97460826    -0.71300
O1257       O  0.79530777  0.07204522  0.97457430    -0.70800
O1258       O  0.79398947  0.42312346  0.97382873    -0.62100
O1259       O  0.79426894  0.49819263  0.93956347    -0.74600
O1260       O  0.79518263  0.49673175  0.00888876    -0.73400
Cu1261     Cu  0.70934463  0.49932562  0.97449907     1.04600
Cu1262     Cu  0.79753255  0.49747338  0.97421255     1.04300
C1263       C  0.75422007  0.49762361  0.02004318     0.92900
C1264       C  0.75291958  0.49802681  0.92874073     0.92100
C1265       C  0.75263452  0.40063240  0.97394443     0.84200
C1266       C  0.75405233  0.09624789  0.97462957     0.90500
O1267       O  0.71148733  0.25034254  0.00882039    -0.73300
O1268       O  0.71190373  0.24711554  0.93929072    -0.74300
O1269       O  0.71240457  0.17454335  0.97469048    -0.62900
O1270       O  0.71134378  0.32349091  0.97350245    -0.71300
O1271       O  0.79383799  0.32227293  0.97403110    -0.70800
O1272       O  0.79489755  0.17357053  0.97428342    -0.62100
O1273       O  0.79441744  0.24796726  0.93937500    -0.74600
O1274       O  0.79375411  0.24840787  0.00886837    -0.73400
Cu1275     Cu  0.70887498  0.24894630  0.97406331     1.04600
Cu1276     Cu  0.79709671  0.24801898  0.97413892     1.04300
C1277       C  0.75258663  0.24941526  0.01989261     0.92900
C1278       C  0.75322573  0.24715657  0.92843846     0.92100
C1279       C  0.75382166  0.15063756  0.97457437     0.84200
C1280       C  0.75253510  0.34628676  0.97377181     0.90500
O1281       O  0.96212435  0.06894171  0.78206717    -0.73300
O1282       O  0.96219454  0.42027698  0.78416412    -0.74300
O1283       O  0.96321693  0.49753570  0.81783200    -0.62900
O1284       O  0.96115318  0.49237867  0.74838255    -0.71300
O1285       O  0.54370625  0.49167620  0.74791310    -0.70800
O1286       O  0.54573611  0.49373480  0.81748661    -0.62100
O1287       O  0.54467954  0.41840830  0.78317468    -0.74600
O1288       O  0.54464042  0.06736567  0.78227501    -0.73400
Cu1289     Cu  0.95927803  0.49478240  0.78313916     1.04600
Cu1290     Cu  0.54760759  0.49272566  0.78267278     1.04300
C1291       C  0.50335856  0.09155531  0.78201278     0.92900
C1292       C  0.50336084  0.39593023  0.78379317     0.92100
C1293       C  0.50469568  0.49641063  0.82854688     0.84200
C1294       C  0.50215158  0.49163473  0.73727739     0.90500
O1295       O  0.54446829  0.24058744  0.81743998    -0.73300
O1296       O  0.54372740  0.24475631  0.74789212    -0.74300
O1297       O  0.54434773  0.31722289  0.78356820    -0.62900
O1298       O  0.54448566  0.16853222  0.78184023    -0.71300
O1299       O  0.96197589  0.17010402  0.78221977    -0.70800
O1300       O  0.96184000  0.31903747  0.78356838    -0.62100
O1301       O  0.96115264  0.24616242  0.74823851    -0.74600
O1302       O  0.96203377  0.24332685  0.81745976    -0.73400
Cu1303     Cu  0.54718363  0.24273738  0.78267087     1.04600
Cu1304     Cu  0.95887408  0.24467541  0.78287356     1.04300
C1305       C  0.50321582  0.24132868  0.82839988     0.92900
C1306       C  0.50219925  0.24608480  0.73721643     0.92100
C1307       C  0.50316882  0.34154430  0.78373765     0.84200
C1308       C  0.50325807  0.14591494  0.78193522     0.90500
O1309       O  0.71137293  0.49165720  0.74855133    -0.73300
O1310       O  0.71333175  0.49243651  0.81795739    -0.74300
O1311       O  0.71231290  0.06640686  0.78307489    -0.62900
O1312       O  0.71206025  0.41766463  0.78353459    -0.71300
O1313       O  0.79456848  0.41600961  0.78326314    -0.70800
O1314       O  0.79480719  0.06491073  0.78233636    -0.62100
O1315       O  0.79571217  0.49175515  0.81742190    -0.74600
O1316       O  0.79393685  0.48942692  0.74804755    -0.73400
Cu1317     Cu  0.70943500  0.49206361  0.78329988     1.04600
Cu1318     Cu  0.79771841  0.49040277  0.78274275     1.04300
C1319       C  0.75236223  0.49052022  0.73744129     0.92900
C1320       C  0.75483622  0.49281956  0.82865742     0.92100
C1321       C  0.75353713  0.08907259  0.78266217     0.84200
C1322       C  0.75326510  0.39343591  0.78353626     0.90500
O1323       O  0.79587117  0.24063699  0.81763378    -0.73300
O1324       O  0.79251919  0.24145431  0.74802464    -0.74300
O1325       O  0.79440610  0.31496621  0.78300913    -0.62900
O1326       O  0.79456294  0.16624739  0.78262997    -0.71300
O1327       O  0.71205291  0.16749985  0.78285696    -0.70800
O1328       O  0.71193196  0.31640727  0.78431598    -0.62100
O1329       O  0.70997992  0.24390266  0.74889359    -0.74600
O1330       O  0.71335733  0.23995780  0.81828219    -0.73400
Cu1331     Cu  0.79726096  0.24068439  0.78279277     1.04600
Cu1332     Cu  0.70894004  0.24195214  0.78362382     1.04300
C1333       C  0.75498167  0.24013613  0.82884756     0.92900
C1334       C  0.75070958  0.24355385  0.73759809     0.92100
C1335       C  0.75317287  0.33908507  0.78368263     0.84200
C1336       C  0.75339472  0.14345708  0.78267944     0.90500
O1337       O  0.92621147  0.03440316  0.66694539    -0.73300
O1338       O  0.57506430  0.03473295  0.66652677    -0.74300
O1339       O  0.49997877  0.03590355  0.63201955    -0.62900
O1340       O  0.00116666  0.03354853  0.70140852    -0.71300
O1341       O  0.00194187  0.45084827  0.70089536    -0.70800
O1342       O  0.00274447  0.45358077  0.63123161    -0.62100
O1343       O  0.57654019  0.45209536  0.66624080    -0.74600
O1344       O  0.92778760  0.45187100  0.66588433    -0.73400
Cu1345     Cu  0.50054268  0.03751843  0.66674217     1.04600
Cu1346     Cu  0.00228475  0.44918027  0.66603080     1.04300
C1347       C  0.90350479  0.49308468  0.66639314     0.92900
C1348       C  0.59913188  0.49338316  0.66648759     0.92100
C1349       C  0.00155162  0.49527058  0.62061530     0.84200
C1350       C  0.00153649  0.49190023  0.71202086     0.90500
O1351       O  0.57460152  0.20851616  0.66555575    -0.73300
O1352       O  0.92599678  0.20820172  0.66654403    -0.74300
O1353       O  0.49906511  0.21058769  0.63138104    -0.62900
O1354       O  0.50165061  0.20663903  0.70070461    -0.71300
O1355       O  0.50003267  0.28926336  0.70161860    -0.70800
O1356       O  0.49700692  0.29294760  0.63210482    -0.62100
O1357       O  0.92413574  0.29074999  0.66748059    -0.74600
O1358       O  0.57312934  0.29106385  0.66633683    -0.73400
Cu1359     Cu  0.50037168  0.20564143  0.66599986     1.04600
Cu1360     Cu  0.49851465  0.29394869  0.66691675     1.04300
C1361       C  0.59728936  0.24973041  0.66596081     0.92900
C1362       C  0.90166889  0.24935687  0.66709782     0.92100
C1363       C  0.49743516  0.25220715  0.62071741     0.84200
C1364       C  0.50142521  0.24740399  0.71200980     0.90500
O1365       O  0.75144904  0.45343753  0.63140805    -0.73300
O1366       O  0.75264677  0.45035779  0.70098880    -0.74300
O1367       O  0.67761970  0.45200280  0.66641932    -0.62900
O1368       O  0.82648114  0.45173962  0.66595146    -0.71300
O1369       O  0.82513663  0.03428091  0.66714305    -0.70800
O1370       O  0.67635490  0.03465101  0.66688613    -0.62100
O1371       O  0.75051333  0.03301039  0.70172715    -0.74600
O1372       O  0.75111480  0.03584796  0.63237330    -0.73400
Cu1373     Cu  0.75207998  0.44896172  0.66617356     1.04600
Cu1374     Cu  0.75071536  0.03731566  0.66706781     1.04300
C1375       C  0.75139010  0.49520161  0.62085768     0.92900
C1376       C  0.75172766  0.49126082  0.71221433     0.92100
C1377       C  0.65349397  0.49332488  0.66662591     0.84200
C1378       C  0.84913325  0.49300776  0.66647206     0.90500
O1379       O  0.75010816  0.20505858  0.70086608    -0.73300
O1380       O  0.75083007  0.20971264  0.63161024    -0.74300
O1381       O  0.82478519  0.20774384  0.66644452    -0.62900
O1382       O  0.67574886  0.20806135  0.66593258    -0.71300
O1383       O  0.67449225  0.29059750  0.66684380    -0.70800
O1384       O  0.82309578  0.29027768  0.66766655    -0.62100
O1385       O  0.74989684  0.29206384  0.63245432    -0.74600
O1386       O  0.74826772  0.28764563  0.70213162    -0.73400
Cu1387     Cu  0.75035614  0.20477279  0.66617775     1.04600
Cu1388     Cu  0.74882445  0.29305835  0.66732895     1.04300
C1389       C  0.74950373  0.24554505  0.71236376     0.92900
C1390       C  0.75090632  0.25135484  0.62100478     0.92100
C1391       C  0.84733495  0.24908289  0.66711791     0.84200
C1392       C  0.65169329  0.24945727  0.66620770     0.92900
C1393       C  0.75348670  0.24596402  0.90297894    -0.00500
C1394       C  0.73864355  0.20264740  0.89158626    -0.12400
C1395       C  0.73963402  0.19973029  0.86735281     0.01700
C1396       C  0.75557183  0.24071956  0.85430213    -0.00600
C1397       C  0.77035636  0.28401971  0.86569749    -0.12300
C1398       C  0.76901921  0.28706850  0.88990800     0.01600
H1399       H  0.72690040  0.17093189  0.90164258     0.14600
H1400       H  0.78179532  0.31585214  0.85564055     0.14600
C1401       C  0.78131818  0.33343073  0.90092505     0.36300
C1402       C  0.72570342  0.15394193  0.85625234     0.36200
N1403       N  0.79072478  0.37071396  0.90975002    -0.44100
N1404       N  0.71481916  0.11721332  0.84731541    -0.44100
C1405       C  0.75280215  0.49638635  0.90315714    -0.00500
C1406       C  0.79063591  0.02036973  0.89098495    -0.12400
C1407       C  0.79197437  0.01974626  0.86676001     0.01700
C1408       C  0.75525578  0.49438716  0.85425574    -0.00600
C1409       C  0.71758165  0.47024744  0.86640831    -0.12300
C1410       C  0.71628452  0.47064336  0.89062186     0.01600
H1411       H  0.81885840  0.04032529  0.90042804     0.14600
H1412       H  0.68956301  0.45004247  0.85695196     0.14600
C1413       C  0.67889566  0.44185308  0.90212614     0.36300
C1414       C  0.83018392  0.04727568  0.85519132     0.36200
N1415       N  0.64937567  0.41840254  0.91143979    -0.44100
N1416       N  0.86041413  0.06948469  0.84571573    -0.44100
C1417       C  0.50270160  0.24112448  0.85397264    -0.00500
C1418       C  0.96687927  0.27061647  0.86542962    -0.12400
C1419       C  0.96532944  0.27284347  0.88960571     0.01700
C1420       C  0.49992295  0.24483563  0.90282034    -0.00600
C1421       C  0.53559271  0.21501476  0.89138161    -0.12300
C1422       C  0.53698473  0.21261289  0.86714516     0.01600
H1423       H  0.94063160  0.29289626  0.85544338     0.14600
H1424       H  0.56169471  0.19265885  0.90140643     0.14600
C1425       C  0.57170678  0.17828655  0.85629974     0.36300
C1426       C  0.92961189  0.30622249  0.90036129     0.36200
N1427       N  0.59891050  0.15024753  0.84756020    -0.44100
N1428       N  0.90142331  0.33323058  0.90910855    -0.44100
C1429       C  0.50495450  0.49785729  0.85400243    -0.00500
C1430       C  0.51956154  0.45502617  0.86621259    -0.12400
C1431       C  0.51748982  0.45401687  0.89045134     0.01700
C1432       C  0.50132249  0.49666701  0.90272183    -0.00600
C1433       C  0.98693243  0.03968453  0.89051468    -0.12300
C1434       C  0.98876963  0.04054376  0.86625717     0.01600
H1435       H  0.53134133  0.42201028  0.85678011     0.14600
H1436       H  0.97503776  0.07268180  0.89993171     0.14600
C1437       C  0.97525765  0.08587237  0.85425690     0.36300
C1438       C  0.52981107  0.40819529  0.90231767     0.36200
N1439       N  0.96437201  0.12204304  0.84452673    -0.44100
N1440       N  0.53933907  0.37137506  0.91181068    -0.44100
C1441       C  0.75069940  0.24847306  0.54619117    -0.00500
C1442       C  0.76988426  0.28962209  0.55798419    -0.12400
C1443       C  0.77061302  0.29153730  0.58224648     0.01700
C1444       C  0.75151920  0.25172003  0.59528272    -0.00600
C1445       C  0.73250468  0.21054595  0.58347157    -0.12300
C1446       C  0.73166538  0.20865697  0.55925603     0.01600
H1447       H  0.78507631  0.32018927  0.54822936     0.14600
H1448       H  0.71732193  0.17991131  0.59318887     0.14600
C1449       C  0.70894237  0.16630238  0.54845631     0.36300
C1450       C  0.79302378  0.33391357  0.59314910     0.36200
N1451       N  0.69048438  0.13246221  0.53985723    -0.44100
N1452       N  0.81118051  0.36780256  0.60184817    -0.44100
C1453       C  0.75127332  0.49646095  0.59514214    -0.00500
C1454       C  0.73041108  0.45673692  0.58295919    -0.12400
C1455       C  0.72812903  0.45671800  0.55870529     0.01700
C1456       C  0.74709387  0.49723774  0.54605634    -0.00600
C1457       C  0.76864116  0.03658330  0.55825349    -0.12300
C1458       C  0.77107492  0.03657960  0.58247107     0.01600
H1459       H  0.71488072  0.42590767  0.59242874     0.14600
H1460       H  0.78425392  0.06737897  0.54879240     0.14600
C1461       C  0.79544284  0.07752196  0.59365208     0.36300
C1462       C  0.70428486  0.41550561  0.54749329     0.36200
N1463       N  0.81506233  0.11033293  0.60254709    -0.44100
N1464       N  0.68500969  0.38240809  0.53866052    -0.44100
C1465       C  0.49710053  0.25250112  0.59500159    -0.00500
C1466       C  0.51786189  0.21125287  0.58333180    -0.12400
C1467       C  0.51949447  0.20923922  0.55914291     0.01700
C1468       C  0.49931317  0.24895518  0.54593235    -0.00600
C1469       C  0.97847939  0.29027948  0.55756751    -0.12300
C1470       C  0.97710899  0.29242537  0.58181850     0.01600
H1471       H  0.53396449  0.18061340  0.59317277     0.14600
H1472       H  0.96257876  0.32093888  0.54766989     0.14600
C1473       C  0.95359851  0.33536606  0.59250237     0.36300
C1474       C  0.54422301  0.16689572  0.54853351     0.36200
N1475       N  0.93474500  0.36993941  0.60090029    -0.44100
N1476       N  0.56422498  0.13298367  0.54012163    -0.44100
C1477       C  0.00106693  0.49687997  0.59493319    -0.00500
C1478       C  0.97554687  0.03627589  0.58393973    -0.12400
C1479       C  0.97304116  0.03926203  0.55974569     0.01700
C1480       C  0.99685390  0.50248824  0.54598065    -0.00600
C1481       C  0.52202583  0.46284333  0.55698190    -0.12300
C1482       C  0.52454899  0.45984654  0.58117471     0.01600
H1483       H  0.95677648  0.06453834  0.59427010     0.14600
H1484       H  0.54056522  0.43444518  0.54664165     0.14600
C1485       C  0.55319327  0.41942393  0.59126304     0.36300
C1486       C  0.94412007  0.07946787  0.54963018     0.36200
N1487       N  0.57624752  0.38700560  0.59924907    -0.44100
N1488       N  0.92080417  0.11164845  0.54159797    -0.44100
C1489       C  0.75152894  0.24780482  0.40323584    -0.00500
C1490       C  0.72918947  0.28815790  0.39155780    -0.12400
C1491       C  0.72836172  0.29025654  0.36733603     0.01700
C1492       C  0.75080542  0.25158412  0.35418041    -0.00600
C1493       C  0.77301838  0.21108541  0.36584923    -0.12300
C1494       C  0.77386716  0.20900847  0.39009913     0.01600
H1495       H  0.71147792  0.31790330  0.40138364     0.14600
H1496       H  0.79061573  0.18129147  0.35600994     0.14600
C1497       C  0.79946473  0.16747666  0.40092391     0.36300
C1498       C  0.70234313  0.33159060  0.35657289     0.36200
N1499       N  0.81968908  0.13408429  0.40963107    -0.44100
N1500       N  0.68144861  0.36470257  0.34797133    -0.44100
C1501       C  0.74984820  0.50786658  0.35400960    -0.00500
C1502       C  0.72833681  0.04869110  0.36564843    -0.12400
C1503       C  0.72627872  0.05058671  0.38990677     0.01700
C1504       C  0.74653602  0.51121919  0.40310637    -0.00600
C1505       C  0.76804727  0.47027607  0.39147779    -0.12300
C1506       C  0.76998893  0.46823192  0.36729280     0.01600
H1507       H  0.71224156  0.07919494  0.35572240     0.14600
H1508       H  0.78400456  0.43962761  0.40135378     0.14600
C1509       C  0.79430169  0.42553478  0.35678748     0.36300
C1510       C  0.70159488  0.09288617  0.40053597     0.36200
N1511       N  0.81378418  0.39116965  0.34851631    -0.44100
N1512       N  0.68193895  0.12705736  0.40888750    -0.44100
C1513       C  0.50124896  0.25290408  0.35392873    -0.00500
C1514       C  0.52302809  0.21211310  0.36551455    -0.12400
C1515       C  0.52420299  0.20993863  0.38974562     0.01700
C1516       C  0.50290574  0.24910758  0.40299377    -0.00600
C1517       C  0.98112799  0.28990395  0.39140878    -0.12300
C1518       C  0.97964080  0.29194255  0.36718504     0.01600
H1519       H  0.53992757  0.18200425  0.35560732     0.14600
H1520       H  0.96410440  0.31994853  0.40131796     0.14600
C1521       C  0.95361016  0.33348392  0.35658330     0.36300
C1522       C  0.54879953  0.16767733  0.40041738     0.36200
N1523       N  0.93269754  0.36686029  0.34820683    -0.44100
N1524       N  0.56813228  0.13358793  0.40896305    -0.44100
C1525       C  0.49494678  0.50685208  0.40305037    -0.00500
C1526       C  0.51513586  0.46540336  0.39130698    -0.12400
C1527       C  0.51784281  0.46413373  0.36709477     0.01700
C1528       C  0.49920743  0.50473600  0.35395943    -0.00600
C1529       C  0.97883642  0.04583582  0.36571144    -0.12300
C1530       C  0.97631764  0.04723921  0.38993787     0.01600
H1531       H  0.53002508  0.43411861  0.40110228     0.14600
H1532       H  0.96401701  0.07712985  0.35590027     0.14600
C1533       C  0.95299272  0.09019378  0.40067362     0.36300
C1534       C  0.54204264  0.42160101  0.35640083     0.36200
N1535       N  0.93455268  0.12475929  0.40926017    -0.44100
N1536       N  0.56150486  0.38749408  0.34789088    -0.44100
C1537       C  0.74882323  0.25383334  0.09474379    -0.00500
C1538       C  0.79113367  0.23519685  0.08316153    -0.12400
C1539       C  0.79294838  0.23246576  0.05897401     0.01700
C1540       C  0.75220473  0.25002592  0.04564226    -0.00600
C1541       C  0.70975183  0.26848987  0.05720316    -0.12300
C1542       C  0.70749197  0.27018501  0.08144007     0.01600
H1543       H  0.82269516  0.22136348  0.09306399     0.14600
H1544       H  0.67810019  0.28200024  0.04727154     0.14600
C1545       C  0.66252006  0.28968840  0.09197789     0.36300
C1546       C  0.83597309  0.20865974  0.04854600     0.36200
N1547       N  0.62640096  0.30519505  0.10037775    -0.44100
N1548       N  0.87022428  0.18899142  0.04028547    -0.44100
C1549       C  0.75094863  0.50262060  0.09474618    -0.00500
C1550       C  0.79288074  0.48281092  0.08325836    -0.12400
C1551       C  0.79479009  0.48008365  0.05905813     0.01700
C1552       C  0.75417728  0.49804273  0.04573681    -0.00600
C1553       C  0.71226836  0.01739344  0.05723323    -0.12300
C1554       C  0.71020305  0.01990638  0.08140415     0.01600
H1555       H  0.82413754  0.46848253  0.09323809     0.14600
H1556       H  0.68093171  0.03159492  0.04726999     0.14600
C1557       C  0.66636808  0.04227146  0.09178937     0.36300
C1558       C  0.83801394  0.45668966  0.04859289     0.36200
N1559       N  0.63119553  0.06033347  0.09998789    -0.44100
N1560       N  0.87257141  0.43761171  0.04031066    -0.44100
C1561       C  0.98998384  0.25733062  0.09449747    -0.00500
C1562       C  0.53099889  0.23516913  0.08324206    -0.12400
C1563       C  0.53367018  0.23251143  0.05911126     0.01700
C1564       C  0.99409941  0.25160867  0.04549140    -0.00600
C1565       C  0.95289391  0.27379193  0.05670850    -0.12300
C1566       C  0.95068923  0.27727068  0.08094317     0.01600
H1567       H  0.56132090  0.21939535  0.09338134     0.14600
H1568       H  0.92270063  0.28957375  0.04648829     0.14600
C1569       C  0.90906023  0.30380720  0.09121538     0.36300
C1570       C  0.57726537  0.20906408  0.04901818     0.36200
N1571       N  0.87584500  0.32553200  0.09930970    -0.44100
N1572       N  0.61239066  0.19045540  0.04103787    -0.44100
C1573       C  0.99221460  0.50628908  0.09440140    -0.00500
C1574       C  0.53304642  0.48373097  0.08314310    -0.12400
C1575       C  0.53514094  0.48012274  0.05898687     0.01700
C1576       C  0.99564719  0.49956253  0.04538666    -0.00600
C1577       C  0.95512727  0.02256512  0.05663373    -0.12300
C1578       C  0.95314924  0.02627585  0.08084207     0.01600
H1579       H  0.56339687  0.46802472  0.09329923     0.14600
H1580       H  0.92502680  0.03862712  0.04643769     0.14600
C1581       C  0.91143773  0.05269655  0.09109571     0.36300
C1582       C  0.57765419  0.45478160  0.04885002     0.36200
N1583       N  0.87805916  0.07413335  0.09920312    -0.44100
N1584       N  0.61179593  0.43437905  0.04086590    -0.44100
O1585       O  0.95301023  0.93476494  0.16627044    -0.73300
O1586       O  0.95278275  0.58355347  0.16631208    -0.74300
O1587       O  0.95146538  0.50925784  0.13143992    -0.62900
O1588       O  0.95488154  0.50903728  0.20112461    -0.71300
O1589       O  0.53726332  0.00772583  0.20025242    -0.70800
O1590       O  0.53390801  0.00709707  0.13088855    -0.62100
O1591       O  0.53526411  0.58203214  0.16535934    -0.74600
O1592       O  0.53550648  0.93315123  0.16569680    -0.73400
Cu1593     Cu  0.95012157  0.50923656  0.16632703     1.04600
Cu1594     Cu  0.53834410  0.00750351  0.16552272     1.04300
C1595       C  0.49424291  0.91054828  0.16603913     0.92900
C1596       C  0.49399914  0.60619907  0.16579287     0.92100
C1597       C  0.99245310  0.00801354  0.12011983     0.84200
C1598       C  0.49672980  0.50820125  0.21154103     0.90500
O1599       O  0.53887101  0.75676385  0.19995511    -0.73300
O1600       O  0.53203244  0.75785912  0.13076081    -0.74300
O1601       O  0.53539149  0.83193021  0.16548810    -0.62900
O1602       O  0.53522738  0.68314027  0.16509580    -0.71300
O1603       O  0.95276994  0.68478467  0.16645785    -0.70800
O1604       O  0.95293794  0.83360810  0.16685175    -0.62100
O1605       O  0.94974353  0.75977929  0.13181223    -0.74600
O1606       O  0.95637790  0.75852964  0.20150132    -0.73400
Cu1607     Cu  0.53821295  0.75743052  0.16525719     1.04600
Cu1608     Cu  0.95001128  0.75927767  0.16673197     1.04300
C1609       C  0.49860408  0.75713598  0.21159200     0.92900
C1610       C  0.99026462  0.75876219  0.12026402     0.92100
C1611       C  0.99419243  0.85617942  0.16614322     0.84200
C1612       C  0.99397995  0.66055769  0.16575767     0.90500
O1613       O  0.79201355  0.00299914  0.13144737    -0.73300
O1614       O  0.79180142  0.00381710  0.20092423    -0.74300
O1615       O  0.79201353  0.92912872  0.16630215    -0.62900
O1616       O  0.79185231  0.57798025  0.16605666    -0.71300
O1617       O  0.70934966  0.57953710  0.16595467    -0.70800
O1618       O  0.70950404  0.93072383  0.16640234    -0.62100
O1619       O  0.70922473  0.00566113  0.20084800    -0.74600
O1620       O  0.70973042  0.00446864  0.13152444    -0.73400
Cu1621     Cu  0.79485873  0.00344855  0.16617630     1.04600
Cu1622     Cu  0.70660063  0.00516029  0.16617079     1.04300
C1623       C  0.75080812  0.00357523  0.12045894     0.92900
C1624       C  0.75043931  0.00481640  0.21174013     0.92100
C1625       C  0.75074814  0.90652780  0.16639011     0.84200
C1626       C  0.75059772  0.60217574  0.16601189     0.90500
O1627       O  0.70943903  0.82959947  0.16674324    -0.73300
O1628       O  0.70935191  0.68077101  0.16638854    -0.74300
O1629       O  0.71041927  0.75495108  0.20131570    -0.62900
O1630       O  0.70834008  0.75554916  0.13188622    -0.71300
O1631       O  0.79058452  0.75361268  0.13135011    -0.70800
O1632       O  0.79298350  0.75353400  0.20082103    -0.62100
O1633       O  0.79184832  0.67918217  0.16599447    -0.74600
O1634       O  0.79193628  0.82797225  0.16611683    -0.73400
Cu1635     Cu  0.70649990  0.75527775  0.16661293     1.04600
Cu1636     Cu  0.79473436  0.75353092  0.16605301     1.04300
C1637       C  0.75070926  0.85218517  0.16643375     0.92900
C1638       C  0.75059420  0.65655974  0.16611591     0.92100
C1639       C  0.75198678  0.75424224  0.21192876     0.84200
C1640       C  0.74911076  0.75463930  0.12056993     0.90500
O1641       O  0.92421369  0.54739137  0.28285297    -0.73300
O1642       O  0.57306066  0.54748128  0.28250298    -0.74300
O1643       O  0.49789671  0.54852145  0.24792063    -0.62900
O1644       O  0.49884095  0.54654705  0.31742991    -0.71300
O1645       O  0.50073445  0.96387717  0.31694718    -0.70800
O1646       O  0.49928989  0.96573546  0.24740585    -0.62100
O1647       O  0.57457216  0.96466351  0.28194053    -0.74600
O1648       O  0.92579382  0.96458917  0.28249766    -0.73400
Cu1649     Cu  0.49850429  0.55037533  0.28269318     1.04600
Cu1650     Cu  0.50019997  0.96181949  0.28217400     1.04300
C1651       C  0.90164955  0.50607415  0.28265835     0.92900
C1652       C  0.59727971  0.50620261  0.28226098     0.92100
C1653       C  0.49813125  0.50751645  0.23679251     0.84200
C1654       C  0.49987158  0.50507255  0.32821994     0.90500
O1655       O  0.92695677  0.79538708  0.28285354    -0.73300
O1656       O  0.57598429  0.79557768  0.28266905    -0.74300
O1657       O  0.50080093  0.79696892  0.24802275    -0.62900
O1658       O  0.50132377  0.79485745  0.31740704    -0.71300
O1659       O  0.50344297  0.71247495  0.31703059    -0.70800
O1660       O  0.50239255  0.71435243  0.24737945    -0.62100
O1661       O  0.57743923  0.71302831  0.28207361    -0.74600
O1662       O  0.92884877  0.71281632  0.28243287    -0.73400
Cu1663     Cu  0.50130580  0.79858888  0.28274825     1.04600
Cu1664     Cu  0.50316945  0.71027348  0.28219964     1.04300
C1665       C  0.90451359  0.75397472  0.28270567     0.92900
C1666       C  0.60014197  0.75423116  0.28242515     0.92100
C1667       C  0.50084403  0.75607286  0.23683197     0.84200
C1668       C  0.50191351  0.75349315  0.32824214     0.90500
O1669       O  0.74913192  0.54668056  0.24764798    -0.73300
O1670       O  0.74843920  0.54814076  0.31711522    -0.74300
O1671       O  0.82312912  0.54729922  0.28251397    -0.62900
O1672       O  0.67433367  0.54745215  0.28222090    -0.71300
O1673       O  0.67582816  0.96464645  0.28251390    -0.70800
O1674       O  0.82465482  0.96451014  0.28278186    -0.62100
O1675       O  0.75014887  0.96548105  0.31740324    -0.74600
O1676       O  0.75070553  0.96393206  0.24792595    -0.73400
Cu1677     Cu  0.74869462  0.55027480  0.28235821     1.04600
Cu1678     Cu  0.75035441  0.96173406  0.28267237     1.04300
C1679       C  0.75018248  0.00510632  0.23695877     0.92900
C1680       C  0.74969733  0.50714363  0.32828272     0.92100
C1681       C  0.84725290  0.00580402  0.28275519     0.84200
C1682       C  0.65161755  0.00592493  0.28229161     0.90500
O1683       O  0.82590878  0.79486141  0.28303187    -0.73300
O1684       O  0.67730585  0.79514678  0.28272957    -0.74300
O1685       O  0.75113920  0.79393515  0.31762875    -0.62900
O1686       O  0.75193159  0.79528561  0.24813245    -0.71300
O1687       O  0.75325694  0.71264568  0.24790605    -0.70800
O1688       O  0.75318078  0.71154679  0.31735341    -0.62100
O1689       O  0.67864465  0.71258366  0.28257225    -0.74600
O1690       O  0.82768030  0.71229303  0.28261445    -0.73400
Cu1691     Cu  0.75156798  0.79767703  0.28290132     1.04600
Cu1692     Cu  0.75326252  0.70934680  0.28260552     1.04300
C1693       C  0.85018927  0.75366926  0.28280443     0.92900
C1694       C  0.65454986  0.75396768  0.28258011     0.92100
C1695       C  0.75169042  0.75257965  0.32851066     0.84200
C1696       C  0.75253985  0.75406954  0.23715880     0.90500
O1697       O  0.49430600  0.54737779  0.44010653    -0.73300
O1698       O  0.49461071  0.54539192  0.50963237    -0.74300
O1699       O  0.56895977  0.54629402  0.47484701    -0.62900
O1700       O  0.92014924  0.54683146  0.47492685    -0.71300
O1701       O  0.92168974  0.96409780  0.47447727    -0.70800
O1702       O  0.57049864  0.96356968  0.47407845    -0.62100
O1703       O  0.99677177  0.96280837  0.50899888    -0.74600
O1704       O  0.99563883  0.96488052  0.43958083    -0.73400
Cu1705     Cu  0.49447255  0.54936327  0.47489242     1.04600
Cu1706     Cu  0.99616661  0.96097388  0.47426640     1.04300
C1707       C  0.49469827  0.00637393  0.42881617     0.92900
C1708       C  0.99570118  0.00362008  0.52033867     0.92100
C1709       C  0.59315267  0.00481981  0.47451911     0.84200
C1710       C  0.89750740  0.00538461  0.47469265     0.90500
O1711       O  0.50256197  0.70740698  0.43971154    -0.73300
O1712       O  0.50049939  0.70766013  0.50918171    -0.74300
O1713       O  0.92712015  0.70770174  0.47407727    -0.62900
O1714       O  0.57583906  0.70668672  0.47487462    -0.71300
O1715       O  0.57454004  0.78923785  0.47489159    -0.70800
O1716       O  0.92561828  0.79025836  0.47415349    -0.62100
O1717       O  0.49908934  0.79002326  0.50923006    -0.74600
O1718       O  0.50092750  0.78978572  0.43977263    -0.73400
Cu1719     Cu  0.50150417  0.70449308  0.47445785     1.04600
Cu1720     Cu  0.50001378  0.79271331  0.47450311     1.04300
C1721       C  0.50230130  0.74861178  0.42871730     0.92900
C1722       C  0.49973804  0.74883435  0.52023804     0.92100
C1723       C  0.90296227  0.74898350  0.47411831     0.84200
C1724       C  0.59861303  0.74786680  0.47495690     0.90500
O1725       O  0.82058511  0.96404888  0.47395080    -0.73300
O1726       O  0.67176246  0.96360593  0.47360774    -0.74300
O1727       O  0.74657828  0.96773937  0.43917506    -0.62900
O1728       O  0.74594523  0.95967605  0.50842285    -0.71300
O1729       O  0.74522424  0.54208328  0.51028819    -0.70800
O1730       O  0.74389583  0.55038187  0.44062407    -0.62100
O1731       O  0.67009113  0.54625810  0.47566202    -0.74600
O1732       O  0.81887817  0.54677455  0.47528985    -0.73400
Cu1733     Cu  0.74624795  0.96093806  0.47370674     1.04600
Cu1734     Cu  0.74441433  0.54929255  0.47555559     1.04300
C1735       C  0.84314740  0.00534632  0.47463887     0.92900
C1736       C  0.64752417  0.00480699  0.47461426     0.92100
C1737       C  0.74525719  0.00976607  0.42887163     0.84200
C1738       C  0.74580234  0.99960848  0.52038401     0.90500
O1739       O  0.82427035  0.79002179  0.47434550    -0.73300
O1740       O  0.67556609  0.78907106  0.47501864    -0.74300
O1741       O  0.75057022  0.78957506  0.50948193    -0.62900
O1742       O  0.74933473  0.78913855  0.43995028    -0.71300
O1743       O  0.75179782  0.70675609  0.43999296    -0.70800
O1744       O  0.75195315  0.70720825  0.50938781    -0.62100
O1745       O  0.67728290  0.70652052  0.47483032    -0.74600
O1746       O  0.82615825  0.70746555  0.47450395    -0.73400
Cu1747     Cu  0.74984261  0.79232948  0.47470029     1.04600
Cu1748     Cu  0.75185822  0.70410631  0.47469052     1.04300
C1749       C  0.84861636  0.74884713  0.47429104     0.92900
C1750       C  0.65300184  0.74776448  0.47497808     0.92100
C1751       C  0.75105110  0.74833630  0.52046656     0.84200
C1752       C  0.75096235  0.74788281  0.42895262     0.90500
O1753       O  0.53781587  0.99686514  0.00883825    -0.73300
O1754       O  0.54037483  0.99592798  0.93945760    -0.74300
O1755       O  0.53874476  0.57105230  0.97421142    -0.62900
O1756       O  0.53909724  0.92211437  0.97416676    -0.71300
O1757       O  0.95661928  0.92393457  0.97331335    -0.70800
O1758       O  0.95624427  0.57264762  0.97384203    -0.62100
O1759       O  0.95785713  0.99901711  0.93871572    -0.74600
O1760       O  0.95552167  0.99834427  0.00842514    -0.73400
Cu1761     Cu  0.54185073  0.99646684  0.97417677     1.04600
Cu1762     Cu  0.95362456  0.99846800  0.97354906     1.04300
C1763       C  0.49644672  0.99786091  0.01966871     0.92900
C1764       C  0.49960213  0.99730439  0.92819151     0.92100
C1765       C  0.49745888  0.59525262  0.97420699     0.84200
C1766       C  0.49778970  0.89960935  0.97364703     0.90500
O1767       O  0.95624433  0.82276160  0.97336181    -0.73300
O1768       O  0.95609759  0.67383942  0.97419817    -0.74300
O1769       O  0.95420918  0.74983170  0.00854717    -0.62900
O1770       O  0.95787168  0.74725583  0.93917438    -0.71300
O1771       O  0.54027354  0.74461260  0.93971514    -0.70800
O1772       O  0.53648182  0.74815859  0.00911191    -0.62100
O1773       O  0.53857702  0.67219747  0.97498392    -0.74600
O1774       O  0.53873228  0.82088136  0.97382915    -0.73400
Cu1775     Cu  0.95320948  0.74843374  0.97378785     1.04600
Cu1776     Cu  0.54138674  0.74640672  0.97445856     1.04300
C1777       C  0.49758353  0.84523516  0.97356077     0.92900
C1778       C  0.49735151  0.64960945  0.97452363     0.92100
C1779       C  0.99498056  0.74958353  0.01985893     0.84200
C1780       C  0.49941193  0.74559197  0.92848261     0.90500
O1781       O  0.71310764  0.99905323  0.00915779    -0.73300
O1782       O  0.71203565  0.99910319  0.93987003    -0.74300
O1783       O  0.71172857  0.92494767  0.97434442    -0.62900
O1784       O  0.71261968  0.57362988  0.97459858    -0.71300
O1785       O  0.79511079  0.57203234  0.97458088    -0.70800
O1786       O  0.79422230  0.92311721  0.97382803    -0.62100
O1787       O  0.79442811  0.99820745  0.93954524    -0.74600
O1788       O  0.79539267  0.99671428  0.00890130    -0.73400
Cu1789     Cu  0.70955560  0.99931885  0.97451295     1.04600
Cu1790     Cu  0.79774168  0.99747595  0.97420927     1.04300
C1791       C  0.75441853  0.99757865  0.02005165     0.92900
C1792       C  0.75304716  0.99806128  0.92874286     0.92100
C1793       C  0.75286337  0.90063330  0.97395939     0.84200
C1794       C  0.75386717  0.59625337  0.97464044     0.90500
O1795       O  0.71153448  0.75041779  0.00888256    -0.73300
O1796       O  0.71194106  0.74719313  0.93933469    -0.74300
O1797       O  0.71230273  0.67460540  0.97473653    -0.62900
O1798       O  0.71150908  0.82354441  0.97355371    -0.71300
O1799       O  0.79400410  0.82222885  0.97406845    -0.70800
O1800       O  0.79479597  0.67352417  0.97434222    -0.62100
O1801       O  0.79445789  0.74788599  0.93942414    -0.74600
O1802       O  0.79379688  0.74839462  0.00892774    -0.73400
Cu1803     Cu  0.70891224  0.74901760  0.97411603     1.04600
Cu1804     Cu  0.79713275  0.74796542  0.97419172     1.04300
C1805       C  0.75263412  0.74946647  0.01995649     0.92900
C1806       C  0.75326847  0.74715468  0.92848329     0.92100
C1807       C  0.75368828  0.65064461  0.97461520     0.84200
C1808       C  0.75272788  0.84629020  0.97380745     0.90500
O1809       O  0.96206738  0.56897900  0.78207755    -0.73300
O1810       O  0.96243279  0.92024308  0.78414256    -0.74300
O1811       O  0.96314908  0.99745826  0.81780312    -0.62900
O1812       O  0.96147452  0.99238126  0.74836819    -0.71300
O1813       O  0.54402756  0.99177512  0.74796376    -0.70800
O1814       O  0.54567373  0.99375068  0.81755332    -0.62100
O1815       O  0.54492109  0.91843719  0.78323276    -0.74600
O1816       O  0.54458448  0.56730763  0.78219954    -0.73400
Cu1817     Cu  0.95942114  0.99474183  0.78311531     1.04600
Cu1818     Cu  0.54775279  0.99277966  0.78273859     1.04300
C1819       C  0.50332938  0.59154413  0.78198459     0.92900
C1820       C  0.50361819  0.89592511  0.78382911     0.92100
C1821       C  0.50456743  0.99635456  0.82856464     0.84200
C1822       C  0.50250846  0.99171610  0.73729461     0.90500
O1823       O  0.54478026  0.74042745  0.81747924    -0.73300
O1824       O  0.54374294  0.74478884  0.74791681    -0.74300
O1825       O  0.54460136  0.81718620  0.78362674    -0.62900
O1826       O  0.54454994  0.66847325  0.78182435    -0.71300
O1827       O  0.96204156  0.67013489  0.78225887    -0.70800
O1828       O  0.96209511  0.81904571  0.78368226    -0.62100
O1829       O  0.96117020  0.74627885  0.74832437    -0.74600
O1830       O  0.96235134  0.74323228  0.81754028    -0.73400
Cu1831     Cu  0.54734853  0.74267869  0.78269642     1.04600
Cu1832     Cu  0.95904290  0.74469642  0.78295909     1.04300
C1833       C  0.50355458  0.74116379  0.82846274     0.92900
C1834       C  0.50217782  0.74618104  0.73727111     0.92100
C1835       C  0.50343473  0.84153291  0.78381184     0.84200
C1836       C  0.50329500  0.64590192  0.78193125     0.90500
O1837       O  0.71128096  0.99163390  0.74852778    -0.73300
O1838       O  0.71308694  0.99250690  0.81794316    -0.74300
O1839       O  0.71249296  0.56639951  0.78311532    -0.62900
O1840       O  0.71188966  0.91767464  0.78353232    -0.71300
O1841       O  0.79439936  0.91604216  0.78327120    -0.70800
O1842       O  0.79498318  0.56492468  0.78233082    -0.62100
O1843       O  0.79546629  0.99177586  0.81741889    -0.74600
O1844       O  0.79384782  0.98944133  0.74806396    -0.73400
Cu1845     Cu  0.70925675  0.99207607  0.78327797     1.04600
Cu1846     Cu  0.79754309  0.99041383  0.78275118     1.04300
C1847       C  0.75229889  0.99052363  0.73743915     0.92900
C1848       C  0.75458673  0.99289986  0.82864893     0.92100
C1849       C  0.75370769  0.58908109  0.78268206     0.84200
C1850       C  0.75310347  0.89346037  0.78354204     0.90500
O1851       O  0.79595040  0.74072649  0.81764524    -0.73300
O1852       O  0.79244178  0.74155778  0.74802186    -0.74300
O1853       O  0.79430599  0.81503967  0.78301354    -0.62900
O1854       O  0.79467233  0.66631251  0.78263003    -0.71300
O1855       O  0.71216532  0.66748478  0.78290194    -0.70800
O1856       O  0.71183262  0.81640051  0.78434149    -0.62100
O1857       O  0.70990503  0.74389095  0.74892520    -0.74600
O1858       O  0.71344077  0.73999327  0.81832301    -0.73400
Cu1859     Cu  0.79726406  0.74076979  0.78279463     1.04600
Cu1860     Cu  0.70894715  0.74194497  0.78366126     1.04300
C1861       C  0.75508001  0.74022012  0.82887567     0.92900
C1862       C  0.75061068  0.74361862  0.73761082     0.92100
C1863       C  0.75304964  0.83911590  0.78369490     0.84200
C1864       C  0.75352868  0.64347706  0.78270193     0.90500
O1865       O  0.92604734  0.53441252  0.66686769    -0.73300
O1866       O  0.57491106  0.53466215  0.66661187    -0.74300
O1867       O  0.50003207  0.53597209  0.63202664    -0.62900
O1868       O  0.00080874  0.53347153  0.70140310    -0.71300
O1869       O  0.00227358  0.95092531  0.70092057    -0.70800
O1870       O  0.00278033  0.95350819  0.63126501    -0.62100
O1871       O  0.57672177  0.95216470  0.66621103    -0.74600
O1872       O  0.92796196  0.95186137  0.66597204    -0.73400
Cu1873     Cu  0.50038605  0.53749887  0.66674580     1.04600
Cu1874     Cu  0.00247001  0.94919795  0.66606181     1.04300
C1875       C  0.90367301  0.99307366  0.66648016     0.92900
C1876       C  0.59929807  0.99346273  0.66642285     0.92100
C1877       C  0.00146942  0.99517214  0.62062998     0.84200
C1878       C  0.00193043  0.99198543  0.71203661     0.90500
O1879       O  0.57444598  0.70858976  0.66558368    -0.73300
O1880       O  0.92584884  0.70828782  0.66660583    -0.74300
O1881       O  0.49886767  0.71066475  0.63142436    -0.62900
O1882       O  0.50154055  0.70674540  0.70075624    -0.71300
O1883       O  0.49989066  0.78936843  0.70167053    -0.70800
O1884       O  0.49687234  0.79301882  0.63215207    -0.62100
O1885       O  0.92398723  0.79083686  0.66752287    -0.74600
O1886       O  0.57298794  0.79113612  0.66638089    -0.73400
Cu1887     Cu  0.50021688  0.70572830  0.66604797     1.04600
Cu1888     Cu  0.49837087  0.79403273  0.66696410     1.04300
C1889       C  0.59714172  0.74979900  0.66598664     0.92900
C1890       C  0.90152107  0.74944214  0.66714305     0.92100
C1891       C  0.49726816  0.75228544  0.62075935     0.84200
C1892       C  0.50132144  0.74750999  0.71206261     0.90500
O1893       O  0.75166969  0.95350426  0.63142155    -0.73300
O1894       O  0.75269099  0.95038597  0.70098724    -0.74300
O1895       O  0.67777581  0.95208946  0.66637954    -0.62900
O1896       O  0.82663300  0.95174788  0.66600253    -0.71300
O1897       O  0.82496128  0.53427343  0.66708497    -0.70800
O1898       O  0.67618751  0.53456356  0.66692527    -0.62100
O1899       O  0.75044813  0.53298088  0.70172003    -0.74600
O1900       O  0.75086409  0.53577918  0.63236066    -0.73400
Cu1901     Cu  0.75222562  0.94901149  0.66617864     1.04600
Cu1902     Cu  0.75054451  0.53726428  0.66705771     1.04300
C1903       C  0.75161304  0.99526814  0.62087278     0.92900
C1904       C  0.75173856  0.99128281  0.71221551     0.92100
C1905       C  0.65365717  0.99341446  0.66657161     0.84200
C1906       C  0.84929841  0.99300699  0.66654304     0.90500
O1907       O  0.74995060  0.70513488  0.70087541    -0.73300
O1908       O  0.75071436  0.70972205  0.63161434    -0.74300
O1909       O  0.82464389  0.70781781  0.66646573    -0.62900
O1910       O  0.67560019  0.70811690  0.66593673    -0.71300
O1911       O  0.67435251  0.79065335  0.66683080    -0.70800
O1912       O  0.82294702  0.79035270  0.66767583    -0.62100
O1913       O  0.74980283  0.79207605  0.63243948    -0.74600
O1914       O  0.74811102  0.78772054  0.70213561    -0.73400
Cu1915     Cu  0.75021300  0.70482787  0.66618670     1.04600
Cu1916     Cu  0.74868485  0.79311377  0.66732307     1.04300
C1917       C  0.74935663  0.74562128  0.71237241     0.92900
C1918       C  0.75083290  0.75135151  0.62099943     0.92100
C1919       C  0.84718891  0.74916073  0.66714271     0.84200
C1920       C  0.65154793  0.74951587  0.66621094     0.92900
C1921       C  0.75354546  0.74598394  0.90301959    -0.00500
C1922       C  0.73908338  0.70254611  0.89161439    -0.12400
C1923       C  0.74011262  0.69966164  0.86737858     0.01700
C1924       C  0.75569693  0.74080087  0.85433498    -0.00600
C1925       C  0.77011037  0.78422103  0.86574235    -0.12300
C1926       C  0.76875289  0.78722958  0.88995688     0.01600
H1927       H  0.72759956  0.67071932  0.90166196     0.14600
H1928       H  0.78129442  0.81615887  0.85569324     0.14600
C1929       C  0.78078016  0.83364923  0.90099193     0.36300
C1930       C  0.72654581  0.65377945  0.85626034     0.36200
N1931       N  0.79000443  0.87095959  0.90983690    -0.44100
N1932       N  0.71594091  0.61699625  0.84729530    -0.44100
C1933       C  0.75281675  0.99646776  0.90315529    -0.00500
C1934       C  0.79057964  0.52042109  0.89101715    -0.12400
C1935       C  0.79204979  0.51974236  0.86679477     0.01700
C1936       C  0.75502742  0.99454733  0.85424743    -0.00600
C1937       C  0.71727955  0.97058975  0.86642755    -0.12300
C1938       C  0.71608823  0.97095835  0.89064244     0.01600
H1939       H  0.81866517  0.54052092  0.90048248     0.14600
H1940       H  0.68912031  0.95053575  0.85699196     0.14600
C1941       C  0.67854123  0.94239978  0.90216483     0.36300
C1942       C  0.83020723  0.54739741  0.85525684     0.36200
N1943       N  0.64887278  0.91915229  0.91148878    -0.44100
N1944       N  0.86040096  0.56971969  0.84581545    -0.44100
C1945       C  0.50305557  0.74092952  0.85404168    -0.00500
C1946       C  0.96702720  0.77018506  0.86548972    -0.12400
C1947       C  0.96540184  0.77239538  0.88966226     0.01700
C1948       C  0.50016140  0.74463907  0.90289522    -0.00600
C1949       C  0.53603499  0.71503021  0.89147036    -0.12300
C1950       C  0.53748197  0.71261875  0.86723071     0.01600
H1951       H  0.94064699  0.79229293  0.85549776     0.14600
H1952       H  0.56226092  0.69284694  0.90150750     0.14600
C1953       C  0.57243432  0.67849640  0.85640585     0.36300
C1954       C  0.92937610  0.80548172  0.90039252     0.36200
N1955       N  0.59985055  0.65062237  0.84769502    -0.44100
N1956       N  0.90091681  0.83223610  0.90911896    -0.44100
C1957       C  0.50467685  0.99777412  0.85401735    -0.00500
C1958       C  0.51903996  0.95487930  0.86623701    -0.12400
C1959       C  0.51693106  0.95390268  0.89047396     0.01700
C1960       C  0.50096365  0.99663914  0.90273111    -0.00600
C1961       C  0.98710828  0.53966722  0.89051561    -0.12300
C1962       C  0.98892175  0.54056261  0.86625826     0.01600
H1963       H  0.53069871  0.92180970  0.85681379     0.14600
H1964       H  0.97508475  0.57260708  0.89994174     0.14600
C1965       C  0.97530221  0.58588847  0.85428115     0.36300
C1966       C  0.52908812  0.90806287  0.90235953     0.36200
N1967       N  0.96435287  0.62208075  0.84458304    -0.44100
N1968       N  0.53849689  0.87124434  0.91187747    -0.44100
C1969       C  0.75078457  0.74843904  0.54618774    -0.00500
C1970       C  0.77022931  0.78945091  0.55798662    -0.12400
C1971       C  0.77090379  0.79137246  0.58224872     0.01700
C1972       C  0.75152553  0.75168526  0.59527725    -0.00600
C1973       C  0.73227600  0.71063074  0.58345840    -0.12300
C1974       C  0.73144143  0.70876357  0.55924047     0.01600
H1975       H  0.78562770  0.81991836  0.54823565     0.14600
H1976       H  0.71686269  0.68010861  0.59317135     0.14600
C1977       C  0.70831836  0.66665256  0.54842081     0.36300
C1978       C  0.79349612  0.83363998  0.59315982     0.36200
N1979       N  0.68951678  0.63302637  0.53980433    -0.44100
N1980       N  0.81178073  0.86746049  0.60185722    -0.44100
C1981       C  0.75143533  0.99650998  0.59516162    -0.00500
C1982       C  0.73044023  0.95682008  0.58300582    -0.12400
C1983       C  0.72806540  0.95678578  0.55875588     0.01700
C1984       C  0.74717904  0.99719530  0.54608364    -0.00600
C1985       C  0.76842787  0.53665878  0.55825412    -0.12300
C1986       C  0.77088208  0.53657829  0.58247229     0.01600
H1987       H  0.71484422  0.92605131  0.59249504     0.14600
H1988       H  0.78396575  0.56752260  0.54881399     0.14600
C1989       C  0.79530824  0.57745960  0.59367398     0.36300
C1990       C  0.70391777  0.91571658  0.54757393     0.36200
N1991       N  0.81500513  0.61020380  0.60258463    -0.44100
N1992       N  0.68437323  0.88274686  0.53876921    -0.44100
C1993       C  0.49694680  0.75259667  0.59503672    -0.00500
C1994       C  0.51730804  0.71116261  0.58336025    -0.12400
C1995       C  0.51901055  0.70918259  0.55917119     0.01700
C1996       C  0.49931369  0.74913647  0.54595674    -0.00600
C1997       C  0.97887290  0.79064592  0.55759892    -0.12300
C1998       C  0.97740143  0.79273781  0.58185185     0.01600
H1999       H  0.53304338  0.68032972  0.59319558     0.14600
H2000       H  0.96332491  0.82148790  0.54770620     0.14600
C2001       C  0.95418341  0.83583608  0.59253355     0.36300
C2002       C  0.54329315  0.66657685  0.54857095     0.36200
N2003       N  0.93553714  0.87051428  0.60093572    -0.44100
N2004       N  0.56291838  0.63244396  0.54016395    -0.44100
C2005       C  0.00084746  0.99670792  0.59495129    -0.00500
C2006       C  0.97609629  0.53665631  0.58392306    -0.12400
C2007       C  0.97355340  0.53963914  0.55973077     0.01700
C2008       C  0.99664014  0.00228484  0.54600381    -0.00600
C2009       C  0.52205679  0.96280196  0.55700745    -0.12300
C2010       C  0.52460322  0.95983985  0.58119875     0.01600
H2011       H  0.95754525  0.56506192  0.59425335     0.14600
H2012       H  0.54081636  0.93454337  0.54666946     0.14600
C2013       C  0.55361166  0.91968008  0.59129084     0.36300
C2014       C  0.94483705  0.58000588  0.54962908     0.36200
N2015       N  0.57697126  0.88747601  0.59927426    -0.44100
N2016       N  0.92169263  0.61231648  0.54160358    -0.44100
C2017       C  0.75157323  0.74810790  0.40325548    -0.00500
C2018       C  0.72921337  0.78845953  0.39158455    -0.12400
C2019       C  0.72847022  0.79061358  0.36736369     0.01700
C2020       C  0.75089589  0.75192362  0.35421075    -0.00600
C2021       C  0.77315963  0.71145316  0.36587542    -0.12300
C2022       C  0.77404069  0.70939120  0.39011998     0.01600
H2023       H  0.71147727  0.81818459  0.40141428     0.14600
H2024       H  0.79081078  0.68168976  0.35603638     0.14600
C2025       C  0.79986068  0.66799410  0.40094173     0.36300
C2026       C  0.70266612  0.83208372  0.35660144     0.36200
N2027       N  0.82027309  0.63471303  0.40964657    -0.44100
N2028       N  0.68198199  0.86533239  0.34800486    -0.44100
C2029       C  0.74957070  0.00751855  0.35404439    -0.00500
C2030       C  0.72892248  0.54921369  0.36559957    -0.12400
C2031       C  0.72675838  0.55111581  0.38985607     0.01700
C2032       C  0.74640562  0.01083622  0.40313992    -0.00600
C2033       C  0.76820034  0.97005921  0.39149761    -0.12300
C2034       C  0.77010259  0.96805696  0.36730932     0.01600
H2035       H  0.71309616  0.57983894  0.35566325     0.14600
H2036       H  0.78444497  0.93954505  0.40136496     0.14600
C2037       C  0.79483278  0.92563892  0.35676971     0.36300
C2038       C  0.70223701  0.59354424  0.40045378     0.36200
N2039       N  0.81464719  0.89151359  0.34845265    -0.44100
N2040       N  0.68267120  0.62781499  0.40876256    -0.44100
C2041       C  0.50128809  0.75286801  0.35394889    -0.00500
C2042       C  0.52321972  0.71216199  0.36553600    -0.12400
C2043       C  0.52435286  0.70997960  0.38976657     0.01700
C2044       C  0.50288471  0.74907069  0.40300723    -0.00600
C2045       C  0.98090648  0.78975578  0.39141777    -0.12300
C2046       C  0.97944479  0.79178519  0.36719500     0.01600
H2047       H  0.54026856  0.68213319  0.35563022     0.14600
H2048       H  0.96372183  0.81971693  0.40132244     0.14600
C2049       C  0.95322008  0.83318204  0.35657472     0.36300
C2050       C  0.54907451  0.66779353  0.40044285     0.36200
N2051       N  0.93216716  0.86643523  0.34816877    -0.44100
N2052       N  0.56851158  0.63375348  0.40898160    -0.44100
C2053       C  0.49494456  0.00664750  0.40307973    -0.00500
C2054       C  0.51509178  0.96515494  0.39135376    -0.12400
C2055       C  0.51778759  0.96382038  0.36714224     0.01700
C2056       C  0.49921054  0.00441843  0.35398810    -0.00600
C2057       C  0.97883192  0.54612570  0.36569990    -0.12300
C2058       C  0.97632936  0.54747673  0.38992704     0.01600
H2059       H  0.52995696  0.93387920  0.40116278     0.14600
H2060       H  0.96400425  0.57743593  0.35590258     0.14600
C2061       C  0.95305924  0.59042685  0.40068911     0.36300
C2062       C  0.54192601  0.92122464  0.35647446     0.36200
N2063       N  0.93468488  0.62498115  0.40931385    -0.44100
N2064       N  0.56135854  0.88705955  0.34800057    -0.44100
C2065       C  0.74881684  0.75386595  0.09481980    -0.00500
C2066       C  0.79115881  0.73529472  0.08324113    -0.12400
C2067       C  0.79302180  0.73263161  0.05905235     0.01700
C2068       C  0.75225458  0.75011321  0.04571207    -0.00600
C2069       C  0.70977309  0.76852533  0.05727160    -0.12300
C2070       C  0.70749809  0.77022132  0.08151029     0.01600
H2071       H  0.82272555  0.72148504  0.09314705     0.14600
H2072       H  0.67811303  0.78200476  0.04733750     0.14600
C2073       C  0.66253493  0.78975387  0.09204566     0.36300
C2074       C  0.83615091  0.70900872  0.04863209     0.36200
N2075       N  0.62643020  0.80529473  0.10044605    -0.44100
N2076       N  0.87049716  0.68949824  0.04037841    -0.44100
C2077       C  0.75095974  0.00242814  0.09475974    -0.00500
C2078       C  0.79294238  0.98268805  0.08328475    -0.12400
C2079       C  0.79491590  0.98000235  0.05908433     0.01700
C2080       C  0.75431794  0.99793423  0.04574756    -0.00600
C2081       C  0.71219899  0.51761504  0.05723465    -0.12300
C2082       C  0.71019776  0.52016711  0.08140529     0.01600
H2083       H  0.82420586  0.96840752  0.09327439     0.14600
H2084       H  0.68086672  0.53185743  0.04728099     0.14600
C2085       C  0.66641907  0.54260555  0.09180807     0.36300
C2086       C  0.83820614  0.95670371  0.04863527     0.36200
N2087       N  0.63128939  0.56071443  0.10002444    -0.44100
N2088       N  0.87282431  0.93770084  0.04037180    -0.44100
C2089       C  0.98982805  0.75713731  0.09456682    -0.00500
C2090       C  0.53085497  0.73499496  0.08331377    -0.12400
C2091       C  0.53353271  0.73234657  0.05918426     0.01700
C2092       C  0.99398309  0.75148572  0.04556349    -0.00600
C2093       C  0.95275141  0.77361930  0.05677953    -0.12300
C2094       C  0.95050584  0.77702405  0.08101476     0.01600
H2095       H  0.56118472  0.71923685  0.09345374     0.14600
H2096       H  0.92256220  0.78940674  0.04655886     0.14600
C2097       C  0.90879078  0.80341027  0.09129347     0.36300
C2098       C  0.57711662  0.70887350  0.04909277     0.36200
N2099       N  0.87550105  0.82499484  0.09940107    -0.44100
N2100       N  0.61223074  0.69024057  0.04111367    -0.44100
C2101       C  0.99242803  0.00630920  0.09440321    -0.00500
C2102       C  0.53314110  0.98353477  0.08314079    -0.12400
C2103       C  0.53519228  0.97991031  0.05898059     0.01700
C2104       C  0.99579172  0.99957449  0.04539016    -0.00600
C2105       C  0.95484616  0.52232701  0.05662489    -0.12300
C2106       C  0.95282966  0.52602921  0.08083543     0.01600
H2107       H  0.56340446  0.96765456  0.09329624     0.14600
H2108       H  0.92466917  0.53822624  0.04642421     0.14600
C2109       C  0.91096776  0.55221645  0.09108394     0.36300
C2110       C  0.57751837  0.95428277  0.04882591     0.36200
N2111       N  0.87746885  0.57346947  0.09918693    -0.44100
N2112       N  0.61150000  0.93363861  0.04082504    -0.44100
loop_ 
_geom_bond_atom_site_label_1 
_geom_bond_atom_site_label_2 
_geom_bond_distance 
_geom_bond_site_symmetry_2 
_ccdc_geom_bond_type 
O1         Cu537   2.004       .  S
O1         C1067   1.277       .  A
O2           Cu9   2.003       .  S
O2         C1068   1.277       .  A
O3           Cu9   2.014       .  S
O3          C541   1.279       .  A
O4           Cu9   2.013       .  S
O4         C1070   1.278       .  A
O5          Cu10   2.005       .  S
O5          C542   1.276   1_455  A
O6          Cu10   2.002       .  S
O6         C1069   1.278   1_455  A
O7         Cu538   2.005       .  S
O7           C12   1.277   1_455  A
O8          Cu10   2.004       .  S
O8           C11   1.277   1_455  A
Cu9         O529   2.004   1_545  S
Cu9       Cu1594   2.377       .  S
Cu10        O535   2.005       .  S
Cu10      Cu1593   2.377   1_455  S
C11        O1057   1.277       .  A
C11        C1083   1.463       .  S
C12        O1058   1.277       .  A
C12        C1084   1.463       .  S
C13         O531   1.279       .  A
C13        O1062   1.278       .  A
C13         C517   1.485       .  S
C14        O1060   1.278       .  A
C14         O533   1.276   1_655  A
C14          C69   1.458       .  S
O15         Cu23   2.003       .  S
O15          C25   1.275   1_455  A
O16         Cu23   1.998       .  S
O16        C1082   1.278   1_455  A
O17         Cu23   2.005       .  S
O17        C1083   1.277   1_455  A
O18         Cu23   2.003       .  S
O18        C1084   1.277   1_455  A
O19         Cu24   2.005       .  S
O19          C28   1.277       .  A
O20         Cu24   2.003       .  S
O20          C27   1.277       .  A
O21         Cu24   2.016       .  S
O21          C26   1.278       .  A
O22         Cu24   2.015       .  S
O22        C1081   1.278       .  A
Cu23      Cu1080   2.377   1_455  S
Cu24      Cu1079   2.377       .  S
C25        O1078   1.278       .  A
C25          C83   1.459   1_655  S
C26        O1072   1.278       .  A
C26         C505   1.484       .  S
C27        O1073   1.277       .  A
C27        C1067   1.463       .  S
C28        O1074   1.277       .  A
C28        C1068   1.463       .  S
O29         Cu37   2.006       .  S
O29          C39   1.278       .  A
O30         Cu37   2.007       .  S
O30          C40   1.277       .  A
O31         Cu37   2.003       .  S
O31          C41   1.277       .  A
O32        Cu565   2.005       .  S
O32          C42   1.277       .  A
O33        Cu566   2.004       .  S
O33          C42   1.277       .  A
O34         Cu38   2.004       .  S
O34          C41   1.277       .  A
O35         Cu38   2.003       .  S
O35          C40   1.276       .  A
O36         Cu38   2.001       .  S
O36          C39   1.277       .  A
Cu37        O560   2.005       .  S
Cu37        Cu38   2.377       .  S
Cu38        O561   2.004       .  S
C39         C493   1.484       .  S
C40          C95   1.455       .  S
C41          C53   1.463       .  S
C42          C54   1.464       .  S
O43         Cu51   2.003       .  S
O43          C53   1.277       .  A
O44         Cu51   2.005       .  S
O44          C54   1.277       .  A
O45         Cu51   2.006       .  S
O45          C55   1.276       .  A
O46         Cu51   2.005       .  S
O46          C56   1.277       .  A
O47         Cu52   2.006       .  S
O47          C56   1.279       .  A
O48         Cu52   2.008       .  S
O48          C55   1.277       .  A
O49         Cu52   2.004       .  S
O49          C54   1.277       .  A
O50         Cu52   2.003       .  S
O50          C53   1.277       .  A
Cu51        Cu52   2.376       .  S
C55         C112   1.457       .  S
C56         C481   1.486       .  S
O57       Cu1121   2.004       .  S
O57          C67   1.277       .  A
O58         Cu65   2.008   1_455  S
O58          C68   1.278       .  A
O59         Cu65   2.008       .  S
O59          C69   1.276       .  A
O60         Cu65   2.007       .  S
O60          C70   1.278       .  A
O61         Cu66   2.007       .  S
O61         C598   1.278   1_455  A
O62         Cu66   2.009   1_655  S
O62         C597   1.277       .  A
O63         Cu66   2.006       .  S
O63         C596   1.277       .  A
O64       Cu1122   2.004       .  S
O64         C595   1.277       .  A
Cu65       O1113   2.004       .  S
Cu65       Cu594   2.376   1_645  S
Cu66       O1120   2.004   1_455  S
Cu66       Cu593   2.376   1_455  S
C67         O592   1.277   1_545  A
C67         C625   1.463       .  S
C68         O591   1.277   1_545  A
C68         C626   1.465       .  S
C69         O590   1.277   1_545  A
C70         O589   1.278   1_645  A
C70        C1000   1.486       .  S
O71       Cu1135   2.006       .  S
O71          C81   1.278       .  A
O72         Cu79   2.012       .  S
O72          C82   1.279       .  A
O73         Cu79   2.005       .  S
O73          C83   1.276       .  A
O74         Cu79   2.003       .  S
O74          C84   1.277       .  A
O75         Cu80   2.012       .  S
O75          C84   1.279       .  A
O76         Cu80   2.013       .  S
O76          C83   1.278       .  A
O77         Cu80   2.003       .  S
O77          C82   1.276       .  A
O78       Cu1136   2.001       .  S
O78          C81   1.276       .  A
Cu79       O1127   2.006   1_455  S
Cu79        Cu80   2.376       .  S
Cu80       O1134   2.001   1_455  S
C81         C109   1.463       .  S
C82         C110   1.465       .  S
C84         C457   1.484       .  S
O85         Cu93   2.006       .  S
O85         C623   1.276       .  A
O86         Cu93   2.007       .  S
O86          C96   1.278       .  A
O87         Cu93   2.005       .  S
O87         C625   1.277       .  A
O88         Cu93   2.006       .  S
O88         C626   1.277       .  A
O89         Cu94   2.007       .  S
O89          C98   1.278       .  A
O90         Cu94   2.004       .  S
O90          C97   1.277       .  A
O91         Cu94   2.007       .  S
O91         C624   1.278       .  A
O92         Cu94   2.006       .  S
O92          C95   1.276       .  A
Cu93       Cu622   2.377   1_545  S
Cu94       Cu621   2.377       .  S
C95         O613   1.276       .  A
C96         O619   1.278   1_545  A
C96         C973   1.485       .  S
C97         O615   1.277       .  A
C97         C595   1.463       .  S
C98         O616   1.277       .  A
C98         C596   1.465       .  S
O99        Cu107   2.002       .  S
O99         C109   1.276       .  A
O100       Cu107   2.002       .  S
O100        C110   1.276       .  A
O101       Cu107   2.008       .  S
O101        C111   1.278       .  A
O102       Cu107   2.008       .  S
O102        C112   1.277       .  A
O103       Cu108   2.005       .  S
O103        C112   1.276       .  A
O104       Cu108   2.007       .  S
O104        C111   1.278       .  A
O105       Cu108   2.010       .  S
O105        C110   1.279       .  A
O106       Cu108   2.008       .  S
O106        C109   1.278       .  A
Cu107      Cu108   2.377       .  S
C111        C436   1.484       .  S
O113       Cu121   2.009       .  S
O113        C651   1.278       .  A
O114       Cu121   2.008       .  S
O114       C1708   1.278       .  A
O115       Cu121   2.007   1_455  S
O115        C653   1.277       .  A
O116      Cu1177   2.004       .  S
O116        C654   1.277       .  A
O117       Cu122   2.007       .  S
O117        C126   1.277       .  A
O118      Cu1178   2.005   1_455  S
O118        C125   1.277       .  A
O119       Cu122   2.006       .  S
O119        C124   1.278       .  A
O120       Cu122   2.005       .  S
O120       C1179   1.278       .  A
Cu121      O1172   2.004       .  S
Cu121     Cu1706   2.374   1_545  S
Cu122      O1174   2.005       .  S
Cu122     Cu1705   2.374       .  S
C123        O641   1.278       .  A
C123       O1176   1.278       .  A
C123        C469   1.485       .  S
C124       O1698   1.278       .  A
C124        C424   1.482       .  S
C125        O643   1.277       .  A
C125        C152   1.464       .  S
C126        O644   1.277       .  A
C126        C151   1.464       .  S
O127       Cu135   2.007       .  S
O127        C137   1.278       .  A
O128       Cu135   2.006       .  S
O128        C138   1.278   1_455  A
O129      Cu1191   2.004       .  S
O129        C139   1.277       .  A
O130       Cu135   2.004       .  S
O130        C140   1.277       .  A
O131       Cu136   2.008   1_455  S
O131        C140   1.278       .  A
O132      Cu1192   2.006       .  S
O132        C139   1.277       .  A
O133       Cu136   2.005       .  S
O133        C138   1.278       .  A
O134       Cu136   2.006   1_455  S
O134        C137   1.278       .  A
Cu135      O1185   2.004   1_455  S
Cu135      Cu136   2.374   1_455  S
Cu136      O1188   2.006       .  S
C137        C460   1.484       .  S
C138        C412   1.484       .  S
C139        C165   1.464       .  S
C140        C166   1.465       .  S
O141       Cu149   2.006       .  S
O141        C151   1.277       .  A
O142       Cu149   2.006       .  S
O142        C152   1.277       .  A
O143       Cu149   2.001       .  S
O143        C153   1.278       .  A
O144       Cu149   2.004       .  S
O144        C154   1.277       .  A
O145       Cu150   2.014       .  S
O145        C682   1.280   1_545  A
O146       Cu150   2.016       .  S
O146        C681   1.279       .  A
O147       Cu150   2.005       .  S
O147        C680   1.277       .  A
O148       Cu150   2.005       .  S
O148        C679   1.277       .  A
Cu149      Cu678   2.373       .  S
Cu150      Cu677   2.373   1_545  S
C151        O676   1.277       .  A
C152        O675   1.277       .  A
C153        O674   1.279       .  A
C153        C448   1.486       .  S
C154        O673   1.280       .  A
C154        C400   1.485       .  S
O155       Cu163   2.005       .  S
O155        C165   1.277       .  A
O156       Cu163   2.004       .  S
O156        C166   1.277       .  A
O157       Cu163   2.009       .  S
O157        C167   1.278       .  A
O158       Cu163   2.008       .  S
O158        C168   1.279       .  A
O159       Cu164   2.004       .  S
O159        C168   1.277       .  A
O160       Cu164   2.004       .  S
O160        C167   1.278       .  A
O161       Cu164   2.009       .  S
O161        C166   1.278       .  A
O162       Cu164   2.005       .  S
O162        C165   1.277       .  A
Cu163      Cu164   2.374       .  S
C167        C385   1.485       .  S
C168        C433   1.484       .  S
O169       Cu177   2.003   1_554  S
O169        C179   1.277   1_455  A
O170       Cu177   2.004       .  S
O170        C180   1.276   1_455  A
O171       Cu705   2.008   1_545  S
O171        C181   1.278   1_455  A
O172       Cu177   2.004       .  S
O172        C182   1.277   1_455  A
O173       Cu178   2.005       .  S
O173       C1238   1.277       .  A
O174       Cu706   1.999   1_545  S
O174       C1237   1.276       .  A
O175       Cu178   2.014       .  S
O175       C1236   1.278       .  A
O176       Cu178   2.014   1_554  S
O176       C1235   1.279       .  A
Cu177       O699   2.008       .  S
Cu177     Cu1234   2.376   1_455  S
Cu178       O702   1.999       .  S
Cu178     Cu1233   2.376       .  S
C179       O1232   1.279       .  A
C179       C1576   1.485       .  S
C180       O1231   1.278       .  A
C180        C376   1.470   1_655  S
C181       O1230   1.276       .  A
C181        C194   1.463       .  S
C182       O1229   1.277       .  A
C182        C193   1.463       .  S
O183       Cu191   2.003       .  S
O183       C1249   1.277       .  A
O184       Cu191   2.008       .  S
O184       C1250   1.278       .  A
O185       Cu191   2.007   1_554  S
O185        C195   1.278       .  A
O186       Cu191   2.002       .  S
O186       C1252   1.278       .  A
O187       Cu192   2.006       .  S
O187        C196   1.277   1_455  A
O188       Cu192   2.005   1_554  S
O188       C1251   1.278   1_455  A
O189       Cu192   2.000       .  S
O189        C194   1.276   1_455  A
O190       Cu192   2.004       .  S
O190        C193   1.277   1_455  A
Cu191     Cu1248   2.375       .  S
Cu192     Cu1247   2.375   1_455  S
C193       O1239   1.277       .  A
C194       O1240   1.278       .  A
C195       O1244   1.278       .  A
C195        C508   1.485       .  S
C196       O1242   1.278       .  A
C196        C364   1.477       .  S
O197       Cu205   2.003   1_554  S
O197        C207   1.278       .  A
O198       Cu205   2.001       .  S
O198        C208   1.277       .  A
O199       Cu205   2.002       .  S
O199        C209   1.276       .  A
O200       Cu733   2.003   1_545  S
O200        C210   1.277       .  A
O201       Cu734   2.007   1_545  S
O201        C210   1.277       .  A
O202       Cu206   2.005       .  S
O202        C209   1.278       .  A
O203       Cu206   2.002       .  S
O203        C208   1.277       .  A
O204       Cu206   2.003   1_554  S
O204        C207   1.277       .  A
Cu205       O728   2.003       .  S
Cu205      Cu206   2.375       .  S
Cu206       O729   2.006       .  S
C207        C496   1.483       .  S
C208        C349   1.477       .  S
C209        C224   1.463       .  S
C210        C223   1.464       .  S
O211       Cu219   2.008   1_554  S
O211        C221   1.278       .  A
O212       Cu219   2.009       .  S
O212        C222   1.277       .  A
O213       Cu219   2.003       .  S
O213        C223   1.277       .  A
O214       Cu219   2.009       .  S
O214        C224   1.278       .  A
O215       Cu220   1.999       .  S
O215        C224   1.276       .  A
O216       Cu220   2.006       .  S
O216        C223   1.277       .  A
O217       Cu220   2.008       .  S
O217        C222   1.277       .  A
O218       Cu220   2.006   1_554  S
O218        C221   1.278       .  A
Cu219      Cu220   2.376       .  S
C221        C484   1.486       .  S
C222        C337   1.470       .  S
O225       Cu761   2.000   1_545  S
O225       C1291   1.276       .  A
O226       Cu233   2.006       .  S
O226       C1292   1.277       .  A
O227       Cu233   2.007       .  S
O227       C1293   1.277       .  A
O228       Cu233   2.008       .  S
O228       C1294   1.276       .  A
O229       Cu234   2.009       .  S
O229        C238   1.277       .  A
O230       Cu234   2.010       .  S
O230        C237   1.277       .  A
O231       Cu234   2.003       .  S
O231        C236   1.277       .  A
O232       Cu762   2.008   1_545  S
O232        C235   1.278       .  A
Cu233       O753   2.001       .  S
Cu233     Cu1290   2.379       .  S
Cu234       O760   2.007       .  S
Cu234     Cu1289   2.379   1_455  S
C235       O1281   1.276   1_455  A
C235        C252   1.463       .  S
C236       O1282   1.277   1_455  A
C236        C251   1.464       .  S
C237       O1283   1.277   1_455  A
C237        C373   1.470       .  S
C238       O1284   1.276   1_455  A
C238       C1350   1.458       .  S
O239       Cu247   2.009       .  S
O239        C249   1.278       .  A
O240       Cu247   2.010       .  S
O240        C250   1.277       .  A
O241       Cu247   2.005       .  S
O241        C251   1.277       .  A
O242       Cu247   2.000       .  S
O242        C252   1.276       .  A
O243       Cu248   2.007       .  S
O243       C1308   1.278       .  A
O244       Cu248   2.005       .  S
O244       C1307   1.277       .  A
O245       Cu248   2.000       .  S
O245       C1306   1.275       .  A
O246       Cu248   1.998       .  S
O246       C1305   1.277       .  A
Cu247     Cu1304   2.378   1_455  S
Cu248     Cu1303   2.378       .  S
C249       O1302   1.277   1_455  A
C249        C361   1.476       .  S
C250       O1301   1.275   1_455  A
C250        C308   1.455       .  S
C251       O1300   1.277   1_455  A
C252       O1299   1.278   1_455  A
O253       Cu261   2.006       .  S
O253        C263   1.276       .  A
O254       Cu261   2.003       .  S
O254        C264   1.278       .  A
O255       Cu789   2.004   1_545  S
O255        C265   1.277       .  A
O256       Cu261   2.002       .  S
O256        C266   1.277       .  A
O257       Cu262   2.006       .  S
O257        C266   1.278       .  A
O258       Cu790   2.005   1_545  S
O258        C265   1.277       .  A
O259       Cu262   2.003       .  S
O259        C264   1.277       .  A
O260       Cu262   2.005       .  S
O260        C263   1.276       .  A
Cu261       O783   2.004       .  S
Cu261      Cu262   2.378       .  S
Cu262       O786   2.006       .  S
C263        C320   1.456       .  S
C264        C352   1.478       .  S
C265        C280   1.464       .  S
C266        C279   1.463       .  S
O267       Cu275   2.011       .  S
O267        C277   1.277       .  A
O268       Cu275   2.011       .  S
O268        C278   1.277       .  A
O269       Cu275   1.999       .  S
O269        C279   1.276       .  A
O270       Cu275   2.006       .  S
O270        C280   1.277       .  A
O271       Cu276   2.004       .  S
O271        C280   1.277       .  A
O272       Cu276   2.007       .  S
O272        C279   1.278       .  A
O273       Cu276   2.005       .  S
O273        C278   1.276       .  A
O274       Cu276   2.005       .  S
O274        C277   1.277       .  A
Cu275      Cu276   2.379       .  S
C277        C340   1.469       .  S
C278        C333   1.458       .  S
O281      Cu1345   2.005       .  S
O281        C819   1.277   1_545  A
O282       Cu289   2.007       .  S
O282        C820   1.278   1_545  A
O283       Cu289   2.005   1_655  S
O283       C1877   1.278   1_645  A
O284      Cu1345   2.004       .  S
O284        C822   1.276   1_545  A
O285       Cu290   2.013       .  S
O285        C294   1.277       .  A
O286       Cu290   2.012       .  S
O286        C293   1.279       .  A
O287      Cu1346   2.003       .  S
O287        C292   1.277       .  A
O288       Cu290   2.007       .  S
O288        C291   1.277       .  A
Cu289      O1337   2.005   1_455  S
Cu289      O1340   2.004       .  S
Cu289     Cu1874   2.377   1_545  S
Cu290      O1343   2.003       .  S
Cu290     Cu1873   2.377       .  S
C291        O809   1.277       .  A
C291        C322   1.465       .  S
C292        O810   1.278       .  A
C292        C321   1.464       .  S
C293       O1867   1.278       .  A
C293        C421   1.483       .  S
C294        O812   1.276       .  A
C294       C1294   1.458       .  S
O295       Cu303   2.002       .  S
O295        C305   1.277       .  A
O296      Cu1359   2.003       .  S
O296        C306   1.277       .  A
O297       Cu303   2.003   1_655  S
O297        C307   1.278       .  A
O298       Cu303   2.004       .  S
O298        C308   1.276       .  A
O299       Cu304   2.007   1_455  S
O299        C308   1.277       .  A
O300       Cu304   2.010       .  S
O300        C307   1.278       .  A
O301      Cu1360   2.007       .  S
O301        C306   1.278       .  A
O302       Cu304   2.010   1_455  S
O302        C305   1.278       .  A
Cu303      O1352   2.003   1_455  S
Cu303      Cu304   2.377   1_455  S
Cu304      O1357   2.007       .  S
C305        C336   1.465       .  S
C306        C335   1.464       .  S
C307        C409   1.484       .  S
O309       Cu317   2.010       .  S
O309        C319   1.279       .  A
O310       Cu317   2.010       .  S
O310        C320   1.277       .  A
O311       Cu317   2.006       .  S
O311        C321   1.277       .  A
O312       Cu317   2.007       .  S
O312        C322   1.278       .  A
O313       Cu318   2.005       .  S
O313        C850   1.277   1_545  A
O314       Cu318   2.006       .  S
O314        C849   1.277   1_545  A
O315       Cu318   2.004       .  S
O315        C848   1.276   1_545  A
O316       Cu318   2.003       .  S
O316        C847   1.277   1_545  A
Cu317      Cu846   2.376       .  S
Cu318      Cu845   2.377   1_545  S
C319        O844   1.277       .  A
C319        C397   1.485       .  S
C320        O843   1.276       .  A
C321        O842   1.277       .  A
C322        O841   1.277       .  A
O323       Cu331   2.002       .  S
O323        C333   1.275       .  A
O324       Cu331   2.000       .  S
O324        C334   1.277       .  A
O325       Cu331   2.008       .  S
O325        C335   1.278       .  A
O326       Cu331   2.010       .  S
O326        C336   1.278       .  A
O327       Cu332   2.005       .  S
O327        C336   1.277       .  A
O328       Cu332   2.001       .  S
O328        C335   1.276       .  A
O329       Cu332   2.013       .  S
O329        C334   1.279       .  A
O330       Cu332   2.014       .  S
O330        C333   1.278       .  A
Cu331      Cu332   2.376       .  S
C334        C388   1.485       .  S
C337        C338   1.403       .  A
C337        C342   1.409       .  A
C338        C339   1.401       .  A
C338        H343   1.085       .  S
C339        C340   1.410       .  A
C339        C346   1.444       .  S
C340        C341   1.402       .  A
C341        C342   1.400       .  A
C341        H344   1.085       .  S
C342        C345   1.444       .  S
C345        N347   1.157       .  T
C346        N348   1.157       .  T
C349        C354   1.413       .  A
C349        C878   1.403       .  A
C350        C351   1.399       .  A
C350        C877   1.403   1_545  A
C350        H355   1.086       .  S
C351        C880   1.413   1_545  A
C351        C358   1.443       .  S
C352        C353   1.403       .  A
C352        C879   1.413       .  A
C353        C354   1.398       .  A
C353        H356   1.086       .  S
C354        C357   1.444       .  S
C357        N359   1.157       .  T
C358        N360   1.157       .  T
C361        C366   1.412       .  A
C361       C1418   1.403   1_455  A
C362        C363   1.397       .  A
C362       C1417   1.403       .  A
C362        H367   1.085       .  S
C363       C1420   1.412       .  A
C363        C370   1.444       .  S
C364        C365   1.405   1_655  A
C364       C1419   1.412       .  A
C365        C366   1.401       .  A
C365        H368   1.084       .  S
C366        C369   1.444       .  S
C369        N371   1.157       .  T
C370        N372   1.157       .  T
C373        C374   1.402       .  A
C373       C1962   1.410   1_455  A
C374        C375   1.400       .  A
C374        H379   1.084       .  S
C375        C376   1.410       .  A
C375        C382   1.444       .  S
C376       C1961   1.402   1_455  A
C377        C378   1.401       .  A
C377       C1960   1.402   1_545  A
C377        H380   1.084       .  S
C378       C1957   1.410   1_545  A
C378        C381   1.444       .  S
C381        N383   1.157       .  T
C382        N384   1.157       .  T
C385        C386   1.406       .  A
C385        C390   1.415       .  A
C386        C387   1.401       .  A
C386        H391   1.084       .  S
C387        C388   1.414       .  A
C387        C394   1.444       .  S
C388        C389   1.405       .  A
C389        C390   1.399       .  A
C389        H392   1.084       .  S
C390        C393   1.445       .  S
C393        N395   1.157       .  T
C394        N396   1.157       .  T
C397        C398   1.405       .  A
C397        C930   1.415       .  A
C398        C399   1.401       .  A
C398        H403   1.084       .  S
C399        C400   1.416       .  A
C399        C406   1.445       .  S
C400        C929   1.405       .  A
C401        C402   1.399       .  A
C401        C928   1.405   1_545  A
C401        H404   1.084       .  S
C402        C925   1.415   1_545  A
C402        C405   1.445       .  S
C405        N407   1.157       .  T
C406        N408   1.157       .  T
C409        C410   1.405   1_655  A
C409       C1470   1.415       .  A
C410        C411   1.398       .  A
C410        H415   1.085       .  S
C411        C412   1.414   1_455  A
C411        C418   1.445       .  S
C412       C1469   1.406       .  A
C413        C414   1.401       .  A
C413       C1468   1.406       .  A
C413        H416   1.085       .  S
C414       C1465   1.415       .  A
C414        C417   1.445       .  S
C417        N419   1.158       .  T
C418        N420   1.157       .  T
C421        C950   1.406       .  A
C421       C1482   1.414       .  A
C422        C423   1.400       .  A
C422        C949   1.406   1_545  A
C422        H427   1.084       .  S
C423        C952   1.413       .  A
C423        C430   1.445       .  S
C424        C951   1.414       .  A
C424       C1481   1.405       .  A
C425        C426   1.400       .  A
C425       C1480   1.405   1_455  A
C425        H428   1.084       .  S
C426       C1477   1.414       .  A
C426        C429   1.445       .  S
C429        N431   1.157       .  T
C430        N432   1.157       .  T
C433        C434   1.404       .  A
C433        C438   1.415       .  A
C434        C435   1.399       .  A
C434        H439   1.084       .  S
C435        C436   1.414       .  A
C435        C442   1.444       .  S
C436        C437   1.406       .  A
C437        C438   1.401       .  A
C437        H440   1.084       .  S
C438        C441   1.445       .  S
C441        N443   1.157       .  T
C442        N444   1.157       .  T
C445        C624   1.485       .  S
C445        C450   1.414       .  A
C445        C974   1.407       .  A
C446        C447   1.402       .  A
C446        C973   1.406       .  A
C446        H451   1.085       .  S
C447        C976   1.415       .  A
C447        C454   1.444       .  S
C448        C449   1.405       .  A
C448        C975   1.415       .  A
C449        C450   1.398       .  A
C449        H452   1.085       .  S
C450        C453   1.445       .  S
C453        N455   1.157       .  T
C454        N456   1.157       .  T
C457        C458   1.405       .  A
C457       C1518   1.415   1_455  A
C458        C459   1.400       .  A
C458        H463   1.084       .  S
C459        C460   1.414       .  A
C459        C466   1.444       .  S
C460       C1517   1.405   1_455  A
C461        C462   1.400       .  A
C461       C1516   1.405       .  A
C461        H464   1.085       .  S
C462       C1513   1.415       .  A
C462        C465   1.445       .  S
C465        N467   1.157       .  T
C466        N468   1.157       .  T
C469        C470   1.405   1_655  A
C469       C2058   1.415       .  A
C470        C471   1.400       .  A
C470        H475   1.085       .  S
C471        C472   1.415   1_455  A
C471        C478   1.444       .  S
C472        C598   1.486       .  S
C472       C2057   1.406       .  A
C473        C474   1.400       .  A
C473       C2056   1.406       .  A
C473        H476   1.085       .  S
C474       C2053   1.415       .  A
C474        C477   1.444       .  S
C477        N479   1.157       .  T
C478        N480   1.157       .  T
C481        C482   1.405       .  A
C481        C486   1.416       .  A
C482        C483   1.399       .  A
C482        H487   1.085       .  S
C483        C484   1.415       .  A
C483        C490   1.444       .  S
C484        C485   1.406       .  A
C485        C486   1.401       .  A
C485        H488   1.085       .  S
C486        C489   1.445       .  S
C489        N491   1.157       .  T
C490        N492   1.157       .  T
C493        C494   1.406       .  A
C493       C1026   1.415       .  A
C494        C495   1.400       .  A
C494        H499   1.085       .  S
C495        C496   1.415       .  A
C495        C502   1.445       .  S
C496       C1025   1.405       .  A
C497        C498   1.398       .  A
C497       C1024   1.405   1_545  A
C497        H500   1.085       .  S
C498       C1021   1.415       .  A
C498        C501   1.445       .  S
C501        N503   1.157       .  T
C502        N504   1.157       .  T
C505        C510   1.414       .  A
C505       C1562   1.404       .  A
C506        C507   1.396       .  A
C506       C1561   1.404   1_455  A
C506        H511   1.085       .  S
C507       C1564   1.414   1_455  A
C507        C514   1.445       .  S
C508        C509   1.408       .  A
C508       C1563   1.414       .  A
C509        C510   1.403       .  A
C509        H512   1.085       .  S
C510        C513   1.445       .  S
C513        N515   1.158       .  T
C514        N516   1.157       .  T
C517       C1574   1.405       .  A
C517       C1050   1.415       .  A
C518        C519   1.399       .  A
C518       C1573   1.405   1_455  A
C518        H523   1.086       .  S
C519       C1576   1.415   1_455  A
C519        C526   1.445       .  S
C520       C1235   1.485       .  S
C520       C1575   1.415       .  A
C520       C1049   1.406       .  A
C521        C522   1.402       .  A
C521       C1048   1.406   1_545  A
C521        H524   1.085       .  S
C522       C1045   1.414       .  A
C522        C525   1.445       .  S
C525        N527   1.157       .  T
C526        N528   1.157       .  T
O529       C1595   1.277       .  A
O530       Cu537   2.003       .  S
O530       C1596   1.277       .  A
O531       Cu537   2.014       .  S
O532       Cu537   2.013       .  S
O532       C1598   1.278       .  A
O533       Cu538   2.005       .  S
O534       Cu538   2.003       .  S
O534       C1597   1.278   1_455  A
O535        C540   1.277   1_455  A
O536       Cu538   2.004   1_565  S
O536        C539   1.277   1_455  A
Cu537     Cu1066   2.377       .  S
Cu538     Cu1065   2.377   1_455  S
C539       O1585   1.277       .  A
C539       C1611   1.463       .  S
C540       O1586   1.277       .  A
C540       C1612   1.463       .  S
C541       O1590   1.278       .  A
C541       C1045   1.485       .  S
C542       O1588   1.278       .  A
C542        C597   1.458       .  S
O543       Cu551   2.003       .  S
O543        C553   1.275   1_455  A
O544       Cu551   1.998       .  S
O544       C1610   1.278   1_455  A
O545       Cu551   2.005       .  S
O545       C1611   1.277   1_455  A
O546       Cu551   2.002       .  S
O546       C1612   1.277   1_455  A
O547       Cu552   2.005       .  S
O547        C556   1.277       .  A
O548       Cu552   2.003       .  S
O548        C555   1.277       .  A
O549       Cu552   2.016       .  S
O549        C554   1.278       .  A
O550       Cu552   2.014       .  S
O550       C1609   1.278       .  A
Cu551     Cu1608   2.377   1_455  S
Cu552     Cu1607   2.377       .  S
C553       O1606   1.278       .  A
C553        C611   1.458   1_655  S
C554       O1600   1.278       .  A
C554       C1033   1.484       .  S
C555       O1601   1.277       .  A
C555       C1595   1.463       .  S
C556       O1602   1.277       .  A
C556       C1596   1.463       .  S
O557       Cu565   2.006       .  S
O557        C567   1.278       .  A
O558       Cu565   2.007       .  S
O558        C568   1.277       .  A
O559       Cu565   2.003   1_565  S
O559        C569   1.277       .  A
O560        C570   1.277       .  A
O561        C570   1.277       .  A
O562       Cu566   2.003   1_565  S
O562        C569   1.277       .  A
O563       Cu566   2.003       .  S
O563        C568   1.276       .  A
O564       Cu566   2.002       .  S
O564        C567   1.277       .  A
Cu565      Cu566   2.377       .  S
C567       C1021   1.484       .  S
C568        C623   1.456       .  S
C569        C581   1.462       .  S
C570        C582   1.464       .  S
O571       Cu579   2.003       .  S
O571        C581   1.277       .  A
O572       Cu579   2.005       .  S
O572        C582   1.277       .  A
O573       Cu579   2.006       .  S
O573        C583   1.276       .  A
O574       Cu579   2.005       .  S
O574        C584   1.277       .  A
O575       Cu580   2.006       .  S
O575        C584   1.279       .  A
O576       Cu580   2.007       .  S
O576        C583   1.276       .  A
O577       Cu580   2.004       .  S
O577        C582   1.277       .  A
O578       Cu580   2.003       .  S
O578        C581   1.277       .  A
Cu579      Cu580   2.376       .  S
C583        C640   1.456       .  S
C584       C1009   1.486       .  S
O585      Cu1649   2.004       .  S
O585        C595   1.277       .  A
O586       Cu593   2.008   1_455  S
O586        C596   1.278       .  A
O587       Cu593   2.008       .  S
O587        C597   1.276       .  A
O588       Cu593   2.008       .  S
O588        C598   1.278       .  A
O589       Cu594   2.008       .  S
O590       Cu594   2.010   1_655  S
O591       Cu594   2.006       .  S
O592      Cu1650   2.004       .  S
Cu593      O1641   2.004       .  S
Cu594      O1648   2.004   1_455  S
O599      Cu1663   2.006       .  S
O599        C609   1.278       .  A
O600       Cu607   2.012       .  S
O600        C610   1.278       .  A
O601       Cu607   2.005       .  S
O601        C611   1.276       .  A
O602       Cu607   2.003       .  S
O602        C612   1.277       .  A
O603       Cu608   2.011       .  S
O603        C612   1.279       .  A
O604       Cu608   2.013       .  S
O604        C611   1.278       .  A
O605       Cu608   2.003       .  S
O605        C610   1.276       .  A
O606      Cu1664   2.002       .  S
O606        C609   1.276       .  A
Cu607      O1655   2.006   1_455  S
Cu607      Cu608   2.376       .  S
Cu608      O1662   2.002   1_455  S
C609        C637   1.463       .  S
C610        C638   1.465       .  S
C612        C985   1.484       .  S
O613       Cu621   2.006       .  S
O614       Cu621   2.007       .  S
O614        C624   1.278       .  A
O615       Cu621   2.005       .  S
O616       Cu621   2.006       .  S
O617       Cu622   2.007       .  S
O617        C626   1.278   1_565  A
O618       Cu622   2.004       .  S
O618        C625   1.277   1_565  A
O619       Cu622   2.007       .  S
O620       Cu622   2.006       .  S
O620        C623   1.276   1_565  A
O627       Cu635   2.002       .  S
O627        C637   1.277       .  A
O628       Cu635   2.003       .  S
O628        C638   1.276       .  A
O629       Cu635   2.007       .  S
O629        C639   1.278       .  A
O630       Cu635   2.008       .  S
O630        C640   1.277       .  A
O631       Cu636   2.005       .  S
O631        C640   1.276       .  A
O632       Cu636   2.006       .  S
O632        C639   1.278       .  A
O633       Cu636   2.010       .  S
O633        C638   1.278       .  A
O634       Cu636   2.007       .  S
O634        C637   1.278       .  A
Cu635      Cu636   2.377       .  S
C639        C964   1.484       .  S
O641       Cu649   2.008       .  S
O642       Cu649   2.008       .  S
O642       C1180   1.278       .  A
O643       Cu649   2.006   1_455  S
O644      Cu1705   2.004       .  S
O645       Cu650   2.006       .  S
O645        C654   1.277   1_565  A
O646      Cu1706   2.005   1_455  S
O646        C653   1.277   1_565  A
O647       Cu650   2.005       .  S
O647        C652   1.278   1_565  A
O648       Cu650   2.005       .  S
O648       C1707   1.278   1_565  A
Cu649      O1700   2.004       .  S
Cu649     Cu1178   2.374       .  S
Cu650      O1702   2.005       .  S
Cu650     Cu1177   2.374   1_565  S
C651       O1704   1.278   1_545  A
C651        C997   1.485       .  S
C652       O1170   1.278       .  A
C652        C952   1.482       .  S
C653        C680   1.464       .  S
C654        C679   1.464       .  S
O655       Cu663   2.007       .  S
O655        C665   1.278       .  A
O656       Cu663   2.006       .  S
O656        C666   1.278   1_455  A
O657      Cu1719   2.004       .  S
O657        C667   1.277       .  A
O658       Cu663   2.004       .  S
O658        C668   1.277       .  A
O659       Cu664   2.008       .  S
O659        C668   1.278       .  A
O660      Cu1720   2.006       .  S
O660        C667   1.277       .  A
O661       Cu664   2.006   1_655  S
O661        C666   1.278       .  A
O662       Cu664   2.006       .  S
O662        C665   1.278       .  A
Cu663      O1713   2.004   1_455  S
Cu663      Cu664   2.374       .  S
Cu664      O1716   2.006   1_455  S
C665        C988   1.484       .  S
C666        C940   1.484       .  S
C667        C693   1.464       .  S
C668        C694   1.465       .  S
O669       Cu677   2.006       .  S
O669        C679   1.277   1_565  A
O670       Cu677   2.006       .  S
O670        C680   1.277   1_565  A
O671       Cu677   2.002       .  S
O671        C681   1.278   1_565  A
O672       Cu677   2.004       .  S
O672        C682   1.277       .  A
O673       Cu678   2.014       .  S
O674       Cu678   2.016       .  S
O675       Cu678   2.005       .  S
O676       Cu678   2.006       .  S
C681        C976   1.486       .  S
C682        C928   1.485       .  S
O683       Cu691   2.005       .  S
O683        C693   1.277       .  A
O684       Cu691   2.004       .  S
O684        C694   1.277       .  A
O685       Cu691   2.009       .  S
O685        C695   1.278       .  A
O686       Cu691   2.008       .  S
O686        C696   1.279       .  A
O687       Cu692   2.004       .  S
O687        C696   1.277       .  A
O688       Cu692   2.004       .  S
O688        C695   1.278       .  A
O689       Cu692   2.009       .  S
O689        C694   1.278       .  A
O690       Cu692   2.005       .  S
O690        C693   1.277       .  A
Cu691      Cu692   2.374       .  S
C695        C913   1.485       .  S
C696        C961   1.483       .  S
O697       Cu705   2.003   1_554  S
O697        C707   1.277   1_455  A
O698       Cu705   2.004       .  S
O698        C708   1.276   1_455  A
O699        C709   1.278   1_455  A
O700       Cu705   2.004       .  S
O700        C710   1.277   1_455  A
O701       Cu706   2.006       .  S
O701       C1766   1.277       .  A
O702       C1765   1.276       .  A
O703       Cu706   2.014       .  S
O703       C1764   1.278       .  A
O704       Cu706   2.014   1_554  S
O704       C1763   1.279       .  A
Cu705     Cu1762   2.376   1_455  S
Cu706     Cu1761   2.376       .  S
C707       O1760   1.279       .  A
C707       C2104   1.485       .  S
C708       O1759   1.278       .  A
C708        C904   1.470   1_655  S
C709       O1758   1.276       .  A
C709        C722   1.463       .  S
C710       O1757   1.277       .  A
C710        C721   1.463       .  S
O711       Cu719   2.004       .  S
O711       C1777   1.277       .  A
O712       Cu719   2.008       .  S
O712       C1778   1.278       .  A
O713       Cu719   2.007   1_554  S
O713        C723   1.278       .  A
O714       Cu719   2.002       .  S
O714       C1780   1.278       .  A
O715       Cu720   2.006       .  S
O715        C724   1.277   1_455  A
O716       Cu720   2.005   1_554  S
O716       C1779   1.278   1_455  A
O717       Cu720   2.000       .  S
O717        C722   1.276   1_455  A
O718       Cu720   2.005       .  S
O718        C721   1.277   1_455  A
Cu719     Cu1776   2.375       .  S
Cu720     Cu1775   2.375   1_455  S
C721       O1767   1.277       .  A
C722       O1768   1.278       .  A
C723       O1772   1.278       .  A
C723       C1036   1.485       .  S
C724       O1770   1.278       .  A
C724        C892   1.477   1_655  S
O725       Cu733   2.002   1_554  S
O725        C735   1.278       .  A
O726       Cu733   2.001       .  S
O726        C736   1.277       .  A
O727       Cu733   2.001       .  S
O727        C737   1.276       .  A
O728        C738   1.277       .  A
O729        C738   1.277       .  A
O730       Cu734   2.005       .  S
O730        C737   1.278       .  A
O731       Cu734   2.003       .  S
O731        C736   1.277       .  A
O732       Cu734   2.003   1_554  S
O732        C735   1.277       .  A
Cu733      Cu734   2.375       .  S
C735       C1024   1.483       .  S
C736        C877   1.477       .  S
C737        C752   1.463       .  S
C738        C751   1.464       .  S
O739       Cu747   2.008   1_554  S
O739        C749   1.278       .  A
O740       Cu747   2.010       .  S
O740        C750   1.277       .  A
O741       Cu747   2.003       .  S
O741        C751   1.277       .  A
O742       Cu747   2.008       .  S
O742        C752   1.278       .  A
O743       Cu748   1.999       .  S
O743        C752   1.276       .  A
O744       Cu748   2.006       .  S
O744        C751   1.277       .  A
O745       Cu748   2.008       .  S
O745        C750   1.277       .  A
O746       Cu748   2.007   1_554  S
O746        C749   1.278       .  A
Cu747      Cu748   2.376       .  S
C749       C1012   1.487       .  S
C750        C865   1.470       .  S
O753       C1819   1.276       .  A
O754       Cu761   2.006       .  S
O754       C1820   1.277       .  A
O755       Cu761   2.006       .  S
O755       C1821   1.277       .  A
O756       Cu761   2.007       .  S
O756       C1822   1.276       .  A
O757       Cu762   2.010       .  S
O757        C766   1.277       .  A
O758       Cu762   2.010       .  S
O758        C765   1.277       .  A
O759       Cu762   2.004       .  S
O759        C764   1.277       .  A
O760        C763   1.278       .  A
Cu761     Cu1818   2.379       .  S
Cu762     Cu1817   2.379   1_455  S
C763       O1809   1.276   1_455  A
C763        C780   1.463       .  S
C764       O1810   1.277   1_455  A
C764        C779   1.464       .  S
C765       O1811   1.277   1_455  A
C765        C901   1.470       .  S
C766       O1812   1.276   1_455  A
C766       C1878   1.458       .  S
O767       Cu775   2.010       .  S
O767        C777   1.278       .  A
O768       Cu775   2.011       .  S
O768        C778   1.277       .  A
O769       Cu775   2.006       .  S
O769        C779   1.277       .  A
O770       Cu775   2.000       .  S
O770        C780   1.276       .  A
O771       Cu776   2.007       .  S
O771       C1836   1.278       .  A
O772       Cu776   2.004       .  S
O772       C1835   1.277       .  A
O773       Cu776   2.000       .  S
O773       C1834   1.275       .  A
O774       Cu776   1.998       .  S
O774       C1833   1.277       .  A
Cu775     Cu1832   2.378   1_455  S
Cu776     Cu1831   2.378       .  S
C777       O1830   1.277   1_455  A
C777        C889   1.476       .  S
C778       O1829   1.275   1_455  A
C778        C836   1.456       .  S
C779       O1828   1.277   1_455  A
C780       O1827   1.278   1_455  A
O781       Cu789   2.006       .  S
O781        C791   1.276       .  A
O782       Cu789   2.004       .  S
O782        C792   1.278       .  A
O783        C793   1.277       .  A
O784       Cu789   2.002       .  S
O784        C794   1.277       .  A
O785       Cu790   2.005       .  S
O785        C794   1.278       .  A
O786        C793   1.277       .  A
O787       Cu790   2.002       .  S
O787        C792   1.277       .  A
O788       Cu790   2.005       .  S
O788        C791   1.276       .  A
Cu789      Cu790   2.378       .  S
C791        C848   1.456       .  S
C792        C880   1.478       .  S
C793        C808   1.464       .  S
C794        C807   1.463       .  S
O795       Cu803   2.012       .  S
O795        C805   1.278       .  A
O796       Cu803   2.011       .  S
O796        C806   1.277       .  A
O797       Cu803   1.999       .  S
O797        C807   1.276       .  A
O798       Cu803   2.006       .  S
O798        C808   1.277       .  A
O799       Cu804   2.005       .  S
O799        C808   1.277       .  A
O800       Cu804   2.007       .  S
O800        C807   1.278       .  A
O801       Cu804   2.006       .  S
O801        C806   1.276       .  A
O802       Cu804   2.005       .  S
O802        C805   1.277       .  A
Cu803      Cu804   2.379       .  S
C805        C868   1.470       .  S
C806        C861   1.458       .  S
O809      Cu1873   2.006       .  S
O810       Cu817   2.007       .  S
O811       Cu817   2.004       .  S
O811       C1349   1.278       .  A
O812      Cu1873   2.003       .  S
O813       Cu818   2.012       .  S
O813        C822   1.277       .  A
O814       Cu818   2.012       .  S
O814        C821   1.279       .  A
O815      Cu1874   2.003       .  S
O815        C820   1.277       .  A
O816       Cu818   2.007       .  S
O816        C819   1.277       .  A
Cu817      O1865   2.006   1_455  S
Cu817      O1868   2.003       .  S
Cu817     Cu1346   2.377       .  S
Cu818      O1871   2.003       .  S
Cu818     Cu1345   2.377   1_565  S
C819        C850   1.465       .  S
C820        C849   1.464       .  S
C821       O1339   1.278   1_565  A
C821        C949   1.483       .  S
C822       C1822   1.458       .  S
O823       Cu831   2.002       .  S
O823        C833   1.277       .  A
O824      Cu1887   2.003       .  S
O824        C834   1.277       .  A
O825       Cu831   2.003   1_655  S
O825        C835   1.279       .  A
O826       Cu831   2.004       .  S
O826        C836   1.276       .  A
O827       Cu832   2.008       .  S
O827        C836   1.277   1_655  A
O828       Cu832   2.010       .  S
O828        C835   1.278       .  A
O829      Cu1888   2.007       .  S
O829        C834   1.278       .  A
O830       Cu832   2.010   1_455  S
O830        C833   1.278       .  A
Cu831      O1880   2.003   1_455  S
Cu831      Cu832   2.377   1_455  S
Cu832      O1885   2.007       .  S
C833        C864   1.465       .  S
C834        C863   1.464       .  S
C835        C937   1.485       .  S
O837       Cu845   2.010       .  S
O837        C847   1.279       .  A
O838       Cu845   2.009       .  S
O838        C848   1.277       .  A
O839       Cu845   2.005       .  S
O839        C849   1.277       .  A
O840       Cu845   2.007       .  S
O840        C850   1.277       .  A
O841       Cu846   2.004       .  S
O842       Cu846   2.005       .  S
O843       Cu846   2.004       .  S
O844       Cu846   2.003       .  S
C847        C925   1.484       .  S
O851       Cu859   2.002       .  S
O851        C861   1.275       .  A
O852       Cu859   2.000       .  S
O852        C862   1.277       .  A
O853       Cu859   2.008       .  S
O853        C863   1.278       .  A
O854       Cu859   2.010       .  S
O854        C864   1.278       .  A
O855       Cu860   2.005       .  S
O855        C864   1.277       .  A
O856       Cu860   2.000       .  S
O856        C863   1.276       .  A
O857       Cu860   2.014       .  S
O857        C862   1.279       .  A
O858       Cu860   2.015       .  S
O858        C861   1.278       .  A
Cu859      Cu860   2.376       .  S
C862        C916   1.485       .  S
C865        C866   1.403       .  A
C865        C870   1.409       .  A
C866        C867   1.401       .  A
C866        H871   1.085       .  S
C867        C868   1.410       .  A
C867        C874   1.444       .  S
C868        C869   1.402       .  A
C869        C870   1.400       .  A
C869        H872   1.085       .  S
C870        C873   1.444       .  S
C873        N875   1.157       .  T
C874        N876   1.157       .  T
C877        C882   1.413       .  A
C878        C879   1.399       .  A
C878        H883   1.086       .  S
C879        C886   1.443       .  S
C880        C881   1.403       .  A
C881        C882   1.398       .  A
C881        H884   1.086       .  S
C882        C885   1.444       .  S
C885        N887   1.157       .  T
C886        N888   1.157       .  T
C889       C1946   1.403   1_455  A
C889        C894   1.412       .  A
C890       C1945   1.403       .  A
C890        C891   1.397       .  A
C890        H895   1.085       .  S
C891       C1948   1.412       .  A
C891        C898   1.444       .  S
C892       C1947   1.412   1_455  A
C892        C893   1.405       .  A
C893        C894   1.401       .  A
C893        H896   1.084       .  S
C894        C897   1.444       .  S
C897        N899   1.157       .  T
C898        N900   1.157       .  T
C901        C902   1.402       .  A
C901       C1434   1.410   1_465  A
C902        C903   1.400       .  A
C902        H907   1.084       .  S
C903        C904   1.410       .  A
C903        C910   1.444       .  S
C904       C1433   1.402   1_465  A
C905       C1432   1.402       .  A
C905        C906   1.401       .  A
C905        H908   1.084       .  S
C906       C1429   1.410       .  A
C906        C909   1.444       .  S
C909        N911   1.157       .  T
C910        N912   1.157       .  T
C913        C914   1.406       .  A
C913        C918   1.415       .  A
C914        C915   1.401       .  A
C914        H919   1.084       .  S
C915        C916   1.414       .  A
C915        C922   1.444       .  S
C916        C917   1.406       .  A
C917        C918   1.399       .  A
C917        H920   1.084       .  S
C918        C921   1.445       .  S
C921        N923   1.157       .  T
C922        N924   1.157       .  T
C925        C926   1.405       .  A
C926        C927   1.401       .  A
C926        H931   1.084       .  S
C927        C928   1.416       .  A
C927        C934   1.445       .  S
C929        C930   1.399       .  A
C929        H932   1.084       .  S
C930        C933   1.445       .  S
C933        N935   1.157       .  T
C934        N936   1.157       .  T
C937        C938   1.405   1_655  A
C937       C1998   1.415       .  A
C938        C939   1.398       .  A
C938        H943   1.085       .  S
C939        C940   1.414   1_455  A
C939        C946   1.445       .  S
C940       C1997   1.406       .  A
C941       C1996   1.406       .  A
C941        C942   1.401       .  A
C941        H944   1.085       .  S
C942       C1993   1.415       .  A
C942        C945   1.445       .  S
C945        N947   1.158       .  T
C946        N948   1.157       .  T
C949       C2010   1.414       .  A
C950        C951   1.400       .  A
C950        H955   1.084       .  S
C951        C958   1.445       .  S
C952       C2009   1.405   1_545  A
C953       C2008   1.405   1_465  A
C953        C954   1.400       .  A
C953        H956   1.084       .  S
C954       C2005   1.414       .  A
C954        C957   1.445       .  S
C957        N959   1.157       .  T
C958        N960   1.157       .  T
C961        C962   1.404       .  A
C961        C966   1.415       .  A
C962        C963   1.399       .  A
C962        H967   1.084       .  S
C963        C964   1.414       .  A
C963        C970   1.445       .  S
C964        C965   1.406       .  A
C965        C966   1.401       .  A
C965        H968   1.084       .  S
C966        C969   1.445       .  S
C969        N971   1.157       .  T
C970        N972   1.157       .  T
C973        C978   1.414   1_545  A
C974        C975   1.402       .  A
C974        H979   1.085       .  S
C975        C982   1.444       .  S
C976        C977   1.405   1_545  A
C977        C978   1.398       .  A
C977        H980   1.085       .  S
C978        C981   1.445       .  S
C981        N983   1.157       .  T
C982        N984   1.157       .  T
C985        C986   1.405       .  A
C985       C2046   1.415   1_455  A
C986        C987   1.400       .  A
C986        H991   1.084       .  S
C987        C988   1.414       .  A
C987        C994   1.444       .  S
C988       C2045   1.405   1_455  A
C989       C2044   1.405       .  A
C989        C990   1.400       .  A
C989        H992   1.085       .  S
C990       C2041   1.415       .  A
C990        C993   1.445       .  S
C993        N995   1.157       .  T
C994        N996   1.157       .  T
C997        C998   1.405   1_645  A
C997       C1530   1.415       .  A
C998        C999   1.400       .  A
C998       H1003   1.085       .  S
C999       C1000   1.415   1_465  A
C999       C1006   1.444       .  S
C1000      C1529   1.406       .  A
C1001      C1528   1.406       .  A
C1001      C1002   1.400       .  A
C1001      H1004   1.085       .  S
C1002      C1525   1.415       .  A
C1002      C1005   1.444       .  S
C1005      N1007   1.157       .  T
C1006      N1008   1.157       .  T
C1009      C1010   1.405       .  A
C1009      C1014   1.416       .  A
C1010      C1011   1.399       .  A
C1010      H1015   1.085       .  S
C1011      C1012   1.415       .  A
C1011      C1018   1.444       .  S
C1012      C1013   1.406       .  A
C1013      C1014   1.401       .  A
C1013      H1016   1.085       .  S
C1014      C1017   1.445       .  S
C1017      N1019   1.157       .  T
C1018      N1020   1.157       .  T
C1021      C1022   1.406   1_545  A
C1022      C1023   1.400       .  A
C1022      H1027   1.085       .  S
C1023      C1024   1.415       .  A
C1023      C1030   1.445       .  S
C1025      C1026   1.398       .  A
C1025      H1028   1.085       .  S
C1026      C1029   1.445       .  S
C1029      N1031   1.157       .  T
C1030      N1032   1.157       .  T
C1033      C2090   1.404       .  A
C1033      C1038   1.414       .  A
C1034      C2089   1.404   1_455  A
C1034      C1035   1.396       .  A
C1034      H1039   1.085       .  S
C1035      C2092   1.414   1_455  A
C1035      C1042   1.445       .  S
C1036      C2091   1.414       .  A
C1036      C1037   1.408       .  A
C1037      C1038   1.403       .  A
C1037      H1040   1.085       .  S
C1038      C1041   1.445       .  S
C1041      N1043   1.158       .  T
C1042      N1044   1.157       .  T
C1045      C2102   1.405   1_545  A
C1046      C2101   1.405   1_465  A
C1046      C1047   1.399       .  A
C1046      H1051   1.086       .  S
C1047      C2104   1.415   1_455  A
C1047      C1054   1.445       .  S
C1048      C1763   1.485       .  S
C1048      C2103   1.415       .  A
C1049      C1050   1.402       .  A
C1049      H1052   1.085       .  S
C1050      C1053   1.445       .  S
C1053      N1055   1.157       .  T
C1054      N1056   1.157       .  T
O1057     Cu1593   2.004       .  S
O1058     Cu1065   2.003       .  S
O1059     Cu1065   2.014       .  S
O1059      C1597   1.279       .  A
O1060     Cu1065   2.013       .  S
O1061     Cu1066   2.005       .  S
O1061      C1598   1.276       .  A
O1062     Cu1066   2.002       .  S
O1063     Cu1594   2.005       .  S
O1063      C1068   1.277       .  A
O1064     Cu1066   2.004       .  S
O1064      C1067   1.277       .  A
Cu1065     O1585   2.004   1_545  S
Cu1066     O1591   2.005       .  S
C1069      O1587   1.279       .  A
C1069      C1573   1.485       .  S
C1070      O1589   1.276       .  A
C1070      C1125   1.458       .  S
O1071     Cu1079   2.003       .  S
O1071      C1081   1.275       .  A
O1072     Cu1079   1.998       .  S
O1073     Cu1079   2.005       .  S
O1074     Cu1079   2.003       .  S
O1075     Cu1080   2.005       .  S
O1075      C1084   1.277       .  A
O1076     Cu1080   2.003       .  S
O1076      C1083   1.277       .  A
O1077     Cu1080   2.016       .  S
O1077      C1082   1.278       .  A
O1078     Cu1080   2.015       .  S
C1081      C1139   1.459       .  S
C1082      C1561   1.484       .  S
O1085     Cu1093   2.006       .  S
O1085      C1095   1.278       .  A
O1086     Cu1093   2.007       .  S
O1086      C1096   1.277       .  A
O1087     Cu1093   2.003       .  S
O1087      C1097   1.277       .  A
O1088     Cu1621   2.005       .  S
O1088      C1098   1.277       .  A
O1089     Cu1622   2.004       .  S
O1089      C1098   1.277       .  A
O1090     Cu1094   2.004       .  S
O1090      C1097   1.277       .  A
O1091     Cu1094   2.003       .  S
O1091      C1096   1.276       .  A
O1092     Cu1094   2.001       .  S
O1092      C1095   1.277       .  A
Cu1093     O1616   2.005       .  S
Cu1093    Cu1094   2.377       .  S
Cu1094     O1617   2.004       .  S
C1095      C1549   1.484       .  S
C1096      C1151   1.455       .  S
C1097      C1109   1.463       .  S
C1098      C1110   1.464       .  S
O1099     Cu1107   2.003       .  S
O1099      C1109   1.277       .  A
O1100     Cu1107   2.005       .  S
O1100      C1110   1.277       .  A
O1101     Cu1107   2.006       .  S
O1101      C1111   1.276       .  A
O1102     Cu1107   2.005       .  S
O1102      C1112   1.277       .  A
O1103     Cu1108   2.006       .  S
O1103      C1112   1.279       .  A
O1104     Cu1108   2.008       .  S
O1104      C1111   1.277       .  A
O1105     Cu1108   2.004       .  S
O1105      C1110   1.277       .  A
O1106     Cu1108   2.003       .  S
O1106      C1109   1.277       .  A
Cu1107    Cu1108   2.376       .  S
C1111      C1168   1.457       .  S
C1112      C1537   1.486       .  S
O1113      C1123   1.277       .  A
O1114     Cu1121   2.008       .  S
O1114      C1124   1.278       .  A
O1115     Cu1121   2.008       .  S
O1115      C1125   1.276       .  A
O1116     Cu1121   2.007       .  S
O1116      C1126   1.278       .  A
O1117     Cu1122   2.007       .  S
O1117      C1654   1.278       .  A
O1118     Cu1122   2.009       .  S
O1118      C1653   1.277       .  A
O1119     Cu1122   2.006       .  S
O1119      C1652   1.277       .  A
O1120      C1651   1.277       .  A
Cu1121    Cu1650   2.376   1_545  S
Cu1122    Cu1649   2.376       .  S
C1123      O1648   1.277   1_545  A
C1123      C1681   1.463       .  S
C1124      O1647   1.277   1_545  A
C1124      C1682   1.465       .  S
C1125      O1646   1.277   1_545  A
C1126      O1645   1.278   1_545  A
C1126      C2056   1.486       .  S
O1127      C1137   1.278       .  A
O1128     Cu1135   2.012       .  S
O1128      C1138   1.279       .  A
O1129     Cu1135   2.005       .  S
O1129      C1139   1.276       .  A
O1130     Cu1135   2.003       .  S
O1130      C1140   1.277       .  A
O1131     Cu1136   2.012       .  S
O1131      C1140   1.279       .  A
O1132     Cu1136   2.013       .  S
O1132      C1139   1.278       .  A
O1133     Cu1136   2.003       .  S
O1133      C1138   1.276       .  A
O1134      C1137   1.276       .  A
Cu1135    Cu1136   2.376       .  S
C1137      C1165   1.463       .  S
C1138      C1166   1.465       .  S
C1140      C1513   1.484       .  S
O1141     Cu1149   2.006       .  S
O1141      C1679   1.276       .  A
O1142     Cu1149   2.007       .  S
O1142      C1152   1.278       .  A
O1143     Cu1149   2.005       .  S
O1143      C1681   1.277       .  A
O1144     Cu1149   2.006       .  S
O1144      C1682   1.277       .  A
O1145     Cu1150   2.007       .  S
O1145      C1154   1.278       .  A
O1146     Cu1150   2.004       .  S
O1146      C1153   1.277       .  A
O1147     Cu1150   2.007       .  S
O1147      C1680   1.278       .  A
O1148     Cu1150   2.006       .  S
O1148      C1151   1.276       .  A
Cu1149    Cu1678   2.377   1_545  S
Cu1150    Cu1677   2.377       .  S
C1151      O1669   1.276       .  A
C1152      O1675   1.278   1_545  A
C1152      C2029   1.485       .  S
C1153      O1671   1.277       .  A
C1153      C1651   1.463       .  S
C1154      O1672   1.277       .  A
C1154      C1652   1.465       .  S
O1155     Cu1163   2.002       .  S
O1155      C1165   1.276       .  A
O1156     Cu1163   2.002       .  S
O1156      C1166   1.276       .  A
O1157     Cu1163   2.008       .  S
O1157      C1167   1.278       .  A
O1158     Cu1163   2.008       .  S
O1158      C1168   1.277       .  A
O1159     Cu1164   2.005       .  S
O1159      C1168   1.276       .  A
O1160     Cu1164   2.007       .  S
O1160      C1167   1.278       .  A
O1161     Cu1164   2.010       .  S
O1161      C1166   1.279       .  A
O1162     Cu1164   2.008       .  S
O1162      C1165   1.278       .  A
Cu1163    Cu1164   2.377       .  S
C1167      C1492   1.484       .  S
O1169     Cu1177   2.009       .  S
O1169      C1707   1.278       .  A
O1170     Cu1177   2.008       .  S
O1171     Cu1177   2.007       .  S
O1171      C1709   1.277       .  A
O1172      C1710   1.277       .  A
O1173     Cu1178   2.007       .  S
O1173      C1182   1.277       .  A
O1174      C1181   1.277       .  A
O1175     Cu1178   2.006       .  S
O1175      C1180   1.278       .  A
O1176     Cu1178   2.005       .  S
C1179      O1697   1.278       .  A
C1179      C1525   1.485       .  S
C1180      C1480   1.482       .  S
C1181      O1699   1.277       .  A
C1181      C1208   1.464       .  S
C1182      O1700   1.277       .  A
C1182      C1207   1.464       .  S
O1183     Cu1191   2.007       .  S
O1183      C1193   1.278       .  A
O1184     Cu1191   2.006       .  S
O1184      C1194   1.278       .  A
O1185      C1195   1.277       .  A
O1186     Cu1191   2.004       .  S
O1186      C1196   1.277       .  A
O1187     Cu1192   2.008       .  S
O1187      C1196   1.278       .  A
O1188      C1195   1.277       .  A
O1189     Cu1192   2.005       .  S
O1189      C1194   1.278       .  A
O1190     Cu1192   2.006       .  S
O1190      C1193   1.278       .  A
Cu1191    Cu1192   2.374       .  S
C1193      C1516   1.484       .  S
C1194      C1468   1.484       .  S
C1195      C1221   1.464       .  S
C1196      C1222   1.465       .  S
O1197     Cu1205   2.006       .  S
O1197      C1207   1.277       .  A
O1198     Cu1205   2.006       .  S
O1198      C1208   1.277       .  A
O1199     Cu1205   2.001       .  S
O1199      C1209   1.278       .  A
O1200     Cu1205   2.004       .  S
O1200      C1210   1.277       .  A
O1201     Cu1206   2.014       .  S
O1201      C1738   1.280   1_545  A
O1202     Cu1206   2.016       .  S
O1202      C1737   1.279       .  A
O1203     Cu1206   2.005       .  S
O1203      C1736   1.277       .  A
O1204     Cu1206   2.005       .  S
O1204      C1735   1.277       .  A
Cu1205    Cu1734   2.373       .  S
Cu1206    Cu1733   2.373   1_545  S
C1207      O1732   1.277       .  A
C1208      O1731   1.277       .  A
C1209      O1730   1.279       .  A
C1209      C1504   1.486       .  S
C1210      O1729   1.280       .  A
C1210      C1456   1.485       .  S
O1211     Cu1219   2.005       .  S
O1211      C1221   1.277       .  A
O1212     Cu1219   2.004       .  S
O1212      C1222   1.277       .  A
O1213     Cu1219   2.009       .  S
O1213      C1223   1.278       .  A
O1214     Cu1219   2.008       .  S
O1214      C1224   1.279       .  A
O1215     Cu1220   2.004       .  S
O1215      C1224   1.277       .  A
O1216     Cu1220   2.004       .  S
O1216      C1223   1.278       .  A
O1217     Cu1220   2.009       .  S
O1217      C1222   1.278       .  A
O1218     Cu1220   2.005       .  S
O1218      C1221   1.277       .  A
Cu1219    Cu1220   2.374       .  S
C1223      C1441   1.485       .  S
C1224      C1489   1.484       .  S
O1225     Cu1233   2.003   1_554  S
O1225      C1235   1.277       .  A
O1226     Cu1233   2.004       .  S
O1226      C1236   1.276       .  A
O1227     Cu1761   2.008   1_545  S
O1227      C1237   1.278       .  A
O1228     Cu1233   2.004       .  S
O1228      C1238   1.277       .  A
O1229     Cu1234   2.005       .  S
O1230     Cu1762   1.999   1_545  S
O1231     Cu1234   2.014       .  S
O1232     Cu1234   2.014   1_554  S
Cu1233     O1755   2.008       .  S
Cu1234     O1758   1.999       .  S
C1236      C1432   1.470       .  S
C1237      C1250   1.463       .  S
C1238      C1249   1.463       .  S
O1239     Cu1247   2.003       .  S
O1240     Cu1247   2.008       .  S
O1241     Cu1247   2.007   1_554  S
O1241      C1251   1.278       .  A
O1242     Cu1247   2.002       .  S
O1243     Cu1248   2.006       .  S
O1243      C1252   1.277       .  A
O1244     Cu1248   2.005   1_554  S
O1245     Cu1248   2.000       .  S
O1245      C1250   1.276       .  A
O1246     Cu1248   2.004       .  S
O1246      C1249   1.277       .  A
C1251      C1564   1.485       .  S
C1252      C1420   1.477       .  S
O1253     Cu1261   2.003   1_554  S
O1253      C1263   1.278       .  A
O1254     Cu1261   2.001       .  S
O1254      C1264   1.277       .  A
O1255     Cu1261   2.002       .  S
O1255      C1265   1.276       .  A
O1256     Cu1789   2.003   1_545  S
O1256      C1266   1.277       .  A
O1257     Cu1790   2.007   1_545  S
O1257      C1266   1.277       .  A
O1258     Cu1262   2.005       .  S
O1258      C1265   1.278       .  A
O1259     Cu1262   2.002       .  S
O1259      C1264   1.277       .  A
O1260     Cu1262   2.003   1_554  S
O1260      C1263   1.277       .  A
Cu1261     O1784   2.003       .  S
Cu1261    Cu1262   2.375       .  S
Cu1262     O1785   2.006       .  S
C1263      C1552   1.483       .  S
C1264      C1405   1.477       .  S
C1265      C1280   1.463       .  S
C1266      C1279   1.464       .  S
O1267     Cu1275   2.008   1_554  S
O1267      C1277   1.278       .  A
O1268     Cu1275   2.009       .  S
O1268      C1278   1.277       .  A
O1269     Cu1275   2.003       .  S
O1269      C1279   1.277       .  A
O1270     Cu1275   2.009       .  S
O1270      C1280   1.278       .  A
O1271     Cu1276   1.999       .  S
O1271      C1280   1.276       .  A
O1272     Cu1276   2.006       .  S
O1272      C1279   1.277       .  A
O1273     Cu1276   2.008       .  S
O1273      C1278   1.277       .  A
O1274     Cu1276   2.007   1_554  S
O1274      C1277   1.278       .  A
Cu1275    Cu1276   2.376       .  S
C1277      C1540   1.486       .  S
C1278      C1393   1.470       .  S
O1281     Cu1817   2.000   1_545  S
O1282     Cu1289   2.006       .  S
O1283     Cu1289   2.007       .  S
O1284     Cu1289   2.008       .  S
O1285     Cu1290   2.009       .  S
O1285      C1294   1.277       .  A
O1286     Cu1290   2.010       .  S
O1286      C1293   1.277       .  A
O1287     Cu1290   2.003       .  S
O1287      C1292   1.277       .  A
O1288     Cu1818   2.008   1_545  S
O1288      C1291   1.278       .  A
Cu1289     O1809   2.001       .  S
Cu1290     O1816   2.007       .  S
C1291      C1308   1.463       .  S
C1292      C1307   1.464       .  S
C1293      C1429   1.470       .  S
O1295     Cu1303   2.009       .  S
O1295      C1305   1.278       .  A
O1296     Cu1303   2.010       .  S
O1296      C1306   1.277       .  A
O1297     Cu1303   2.005       .  S
O1297      C1307   1.277       .  A
O1298     Cu1303   2.000       .  S
O1298      C1308   1.276       .  A
O1299     Cu1304   2.007       .  S
O1300     Cu1304   2.005       .  S
O1301     Cu1304   2.000       .  S
O1302     Cu1304   1.998       .  S
C1305      C1417   1.476       .  S
C1306      C1364   1.455       .  S
O1309     Cu1317   2.006       .  S
O1309      C1319   1.276       .  A
O1310     Cu1317   2.003       .  S
O1310      C1320   1.278       .  A
O1311     Cu1845   2.004   1_545  S
O1311      C1321   1.277       .  A
O1312     Cu1317   2.002       .  S
O1312      C1322   1.277       .  A
O1313     Cu1318   2.006       .  S
O1313      C1322   1.278       .  A
O1314     Cu1846   2.005   1_545  S
O1314      C1321   1.277       .  A
O1315     Cu1318   2.003       .  S
O1315      C1320   1.277       .  A
O1316     Cu1318   2.005       .  S
O1316      C1319   1.276       .  A
Cu1317     O1839   2.004       .  S
Cu1317    Cu1318   2.378       .  S
Cu1318     O1842   2.006       .  S
C1319      C1376   1.456       .  S
C1320      C1408   1.478       .  S
C1321      C1336   1.464       .  S
C1322      C1335   1.463       .  S
O1323     Cu1331   2.011       .  S
O1323      C1333   1.277       .  A
O1324     Cu1331   2.011       .  S
O1324      C1334   1.277       .  A
O1325     Cu1331   1.999       .  S
O1325      C1335   1.276       .  A
O1326     Cu1331   2.006       .  S
O1326      C1336   1.277       .  A
O1327     Cu1332   2.004       .  S
O1327      C1336   1.277       .  A
O1328     Cu1332   2.007       .  S
O1328      C1335   1.278       .  A
O1329     Cu1332   2.005       .  S
O1329      C1334   1.276       .  A
O1330     Cu1332   2.005       .  S
O1330      C1333   1.277       .  A
Cu1331    Cu1332   2.379       .  S
C1333      C1396   1.469       .  S
C1334      C1389   1.458       .  S
O1337      C1875   1.277   1_545  A
O1338     Cu1345   2.007       .  S
O1338      C1876   1.278   1_545  A
O1339     Cu1345   2.005       .  S
O1340      C1878   1.276   1_545  A
O1341     Cu1346   2.013       .  S
O1341      C1350   1.277       .  A
O1342     Cu1346   2.012       .  S
O1342      C1349   1.279       .  A
O1343      C1348   1.277       .  A
O1344     Cu1346   2.007   1_655  S
O1344      C1347   1.277       .  A
C1347      O1865   1.277       .  A
C1347      C1378   1.465       .  S
C1348      O1866   1.278       .  A
C1348      C1377   1.464       .  S
C1349      C1477   1.483       .  S
C1350      O1868   1.276       .  A
O1351     Cu1359   2.002       .  S
O1351      C1361   1.277       .  A
O1352      C1362   1.277       .  A
O1353     Cu1359   2.003       .  S
O1353      C1363   1.278       .  A
O1354     Cu1359   2.004       .  S
O1354      C1364   1.276       .  A
O1355     Cu1360   2.007       .  S
O1355      C1364   1.277       .  A
O1356     Cu1360   2.010       .  S
O1356      C1363   1.278       .  A
O1357      C1362   1.278       .  A
O1358     Cu1360   2.010       .  S
O1358      C1361   1.278       .  A
Cu1359    Cu1360   2.377       .  S
C1361      C1392   1.465       .  S
C1362      C1391   1.464       .  S
C1363      C1465   1.484       .  S
O1365     Cu1373   2.010       .  S
O1365      C1375   1.279       .  A
O1366     Cu1373   2.010       .  S
O1366      C1376   1.277       .  A
O1367     Cu1373   2.006       .  S
O1367      C1377   1.277       .  A
O1368     Cu1373   2.007       .  S
O1368      C1378   1.278       .  A
O1369     Cu1374   2.005       .  S
O1369      C1906   1.277   1_545  A
O1370     Cu1374   2.006       .  S
O1370      C1905   1.277   1_545  A
O1371     Cu1374   2.004       .  S
O1371      C1904   1.276   1_545  A
O1372     Cu1374   2.003       .  S
O1372      C1903   1.277   1_545  A
Cu1373    Cu1902   2.376       .  S
Cu1374    Cu1901   2.377   1_545  S
C1375      O1900   1.277       .  A
C1375      C1453   1.485       .  S
C1376      O1899   1.276       .  A
C1377      O1898   1.277       .  A
C1378      O1897   1.277       .  A
O1379     Cu1387   2.002       .  S
O1379      C1389   1.275       .  A
O1380     Cu1387   2.000       .  S
O1380      C1390   1.277       .  A
O1381     Cu1387   2.008       .  S
O1381      C1391   1.278       .  A
O1382     Cu1387   2.010       .  S
O1382      C1392   1.278       .  A
O1383     Cu1388   2.005       .  S
O1383      C1392   1.277       .  A
O1384     Cu1388   2.001       .  S
O1384      C1391   1.276       .  A
O1385     Cu1388   2.013       .  S
O1385      C1390   1.279       .  A
O1386     Cu1388   2.014       .  S
O1386      C1389   1.278       .  A
Cu1387    Cu1388   2.376       .  S
C1390      C1444   1.485       .  S
C1393      C1394   1.403       .  A
C1393      C1398   1.409       .  A
C1394      C1395   1.401       .  A
C1394      H1399   1.085       .  S
C1395      C1396   1.410       .  A
C1395      C1402   1.444       .  S
C1396      C1397   1.402       .  A
C1397      C1398   1.400       .  A
C1397      H1400   1.085       .  S
C1398      C1401   1.444       .  S
C1401      N1403   1.157       .  T
C1402      N1404   1.157       .  T
C1405      C1934   1.403       .  A
C1405      C1410   1.413       .  A
C1406      C1933   1.403   1_545  A
C1406      C1407   1.399       .  A
C1406      H1411   1.086       .  S
C1407      C1936   1.413   1_545  A
C1407      C1414   1.443       .  S
C1408      C1935   1.413       .  A
C1408      C1409   1.403       .  A
C1409      C1410   1.398       .  A
C1409      H1412   1.086       .  S
C1410      C1413   1.444       .  S
C1413      N1415   1.157       .  T
C1414      N1416   1.157       .  T
C1417      C1422   1.412       .  A
C1418      C1419   1.397       .  A
C1418      H1423   1.085       .  S
C1419      C1426   1.444       .  S
C1420      C1421   1.405       .  A
C1421      C1422   1.401       .  A
C1421      H1424   1.084       .  S
C1422      C1425   1.444       .  S
C1425      N1427   1.157       .  T
C1426      N1428   1.157       .  T
C1429      C1430   1.402       .  A
C1430      C1431   1.400       .  A
C1430      H1435   1.084       .  S
C1431      C1432   1.410       .  A
C1431      C1438   1.444       .  S
C1433      C1434   1.401       .  A
C1433      H1436   1.084       .  S
C1434      C1437   1.444       .  S
C1437      N1439   1.157       .  T
C1438      N1440   1.157       .  T
C1441      C1442   1.406       .  A
C1441      C1446   1.415       .  A
C1442      C1443   1.401       .  A
C1442      H1447   1.084       .  S
C1443      C1444   1.414       .  A
C1443      C1450   1.444       .  S
C1444      C1445   1.405       .  A
C1445      C1446   1.399       .  A
C1445      H1448   1.084       .  S
C1446      C1449   1.445       .  S
C1449      N1451   1.157       .  T
C1450      N1452   1.157       .  T
C1453      C1454   1.405       .  A
C1453      C1986   1.415       .  A
C1454      C1455   1.401       .  A
C1454      H1459   1.084       .  S
C1455      C1456   1.416       .  A
C1455      C1462   1.445       .  S
C1456      C1985   1.405       .  A
C1457      C1984   1.405   1_545  A
C1457      C1458   1.399       .  A
C1457      H1460   1.084       .  S
C1458      C1981   1.415   1_545  A
C1458      C1461   1.445       .  S
C1461      N1463   1.157       .  T
C1462      N1464   1.157       .  T
C1465      C1466   1.405       .  A
C1466      C1467   1.398       .  A
C1466      H1471   1.085       .  S
C1467      C1468   1.414       .  A
C1467      C1474   1.445       .  S
C1469      C1470   1.401       .  A
C1469      H1472   1.085       .  S
C1470      C1473   1.445       .  S
C1473      N1475   1.158       .  T
C1474      N1476   1.157       .  T
C1477      C2006   1.406   1_455  A
C1478      C2005   1.406   1_645  A
C1478      C1479   1.400       .  A
C1478      H1483   1.084       .  S
C1479      C2008   1.413       .  A
C1479      C1486   1.445       .  S
C1480      C2007   1.414       .  A
C1481      C1482   1.400       .  A
C1481      H1484   1.084       .  S
C1482      C1485   1.445       .  S
C1485      N1487   1.157       .  T
C1486      N1488   1.157       .  T
C1489      C1490   1.404       .  A
C1489      C1494   1.415       .  A
C1490      C1491   1.399       .  A
C1490      H1495   1.084       .  S
C1491      C1492   1.414       .  A
C1491      C1498   1.444       .  S
C1492      C1493   1.406       .  A
C1493      C1494   1.401       .  A
C1493      H1496   1.084       .  S
C1494      C1497   1.445       .  S
C1497      N1499   1.157       .  T
C1498      N1500   1.157       .  T
C1501      C1680   1.485       .  S
C1501      C2030   1.407       .  A
C1501      C1506   1.414       .  A
C1502      C2029   1.406       .  A
C1502      C1503   1.402       .  A
C1502      H1507   1.085       .  S
C1503      C2032   1.415       .  A
C1503      C1510   1.444       .  S
C1504      C2031   1.415       .  A
C1504      C1505   1.405       .  A
C1505      C1506   1.398       .  A
C1505      H1508   1.085       .  S
C1506      C1509   1.445       .  S
C1509      N1511   1.157       .  T
C1510      N1512   1.157       .  T
C1513      C1514   1.405       .  A
C1514      C1515   1.400       .  A
C1514      H1519   1.084       .  S
C1515      C1516   1.414       .  A
C1515      C1522   1.444       .  S
C1517      C1518   1.400       .  A
C1517      H1520   1.085       .  S
C1518      C1521   1.445       .  S
C1521      N1523   1.157       .  T
C1522      N1524   1.157       .  T
C1525      C1526   1.405       .  A
C1526      C1527   1.400       .  A
C1526      H1531   1.085       .  S
C1527      C1528   1.415       .  A
C1527      C1534   1.444       .  S
C1528      C1654   1.486       .  S
C1529      C1530   1.400       .  A
C1529      H1532   1.085       .  S
C1530      C1533   1.444       .  S
C1533      N1535   1.157       .  T
C1534      N1536   1.157       .  T
C1537      C1538   1.405       .  A
C1537      C1542   1.416       .  A
C1538      C1539   1.399       .  A
C1538      H1543   1.085       .  S
C1539      C1540   1.415       .  A
C1539      C1546   1.444       .  S
C1540      C1541   1.406       .  A
C1541      C1542   1.401       .  A
C1541      H1544   1.085       .  S
C1542      C1545   1.445       .  S
C1545      N1547   1.157       .  T
C1546      N1548   1.157       .  T
C1549      C1550   1.406       .  A
C1549      C2082   1.415       .  A
C1550      C1551   1.400       .  A
C1550      H1555   1.085       .  S
C1551      C1552   1.415       .  A
C1551      C1558   1.445       .  S
C1552      C2081   1.405       .  A
C1553      C2080   1.405   1_545  A
C1553      C1554   1.398       .  A
C1553      H1556   1.085       .  S
C1554      C2077   1.415       .  A
C1554      C1557   1.445       .  S
C1557      N1559   1.157       .  T
C1558      N1560   1.157       .  T
C1561      C1566   1.414       .  A
C1562      C1563   1.396       .  A
C1562      H1567   1.085       .  S
C1563      C1570   1.445       .  S
C1564      C1565   1.408       .  A
C1565      C1566   1.403       .  A
C1565      H1568   1.085       .  S
C1566      C1569   1.445       .  S
C1569      N1571   1.158       .  T
C1570      N1572   1.157       .  T
C1573      C2106   1.415       .  A
C1574      C1575   1.399       .  A
C1574      H1579   1.086       .  S
C1575      C1582   1.445       .  S
C1576      C2105   1.406       .  A
C1577      C2104   1.406   1_545  A
C1577      C1578   1.402       .  A
C1577      H1580   1.085       .  S
C1578      C2101   1.414       .  A
C1578      C1581   1.445       .  S
C1581      N1583   1.157       .  T
C1582      N1584   1.157       .  T
O1586     Cu1593   2.003       .  S
O1587     Cu1593   2.014       .  S
O1588     Cu1593   2.013       .  S
O1589     Cu1594   2.005       .  S
O1590     Cu1594   2.003       .  S
O1591      C1596   1.277       .  A
O1592     Cu1594   2.004   1_565  S
O1592      C1595   1.277       .  A
C1597      C2101   1.485       .  S
C1598      C1653   1.458       .  S
O1599     Cu1607   2.003       .  S
O1599      C1609   1.275       .  A
O1600     Cu1607   1.998       .  S
O1601     Cu1607   2.005       .  S
O1602     Cu1607   2.002       .  S
O1603     Cu1608   2.005       .  S
O1603      C1612   1.277       .  A
O1604     Cu1608   2.003       .  S
O1604      C1611   1.277       .  A
O1605     Cu1608   2.016       .  S
O1605      C1610   1.278       .  A
O1606     Cu1608   2.014       .  S
C1609      C1667   1.458       .  S
C1610      C2089   1.484       .  S
O1613     Cu1621   2.006       .  S
O1613      C1623   1.278       .  A
O1614     Cu1621   2.007       .  S
O1614      C1624   1.277       .  A
O1615     Cu1621   2.003   1_565  S
O1615      C1625   1.277       .  A
O1616      C1626   1.277       .  A
O1617      C1626   1.277       .  A
O1618     Cu1622   2.003   1_565  S
O1618      C1625   1.277       .  A
O1619     Cu1622   2.003       .  S
O1619      C1624   1.276       .  A
O1620     Cu1622   2.002       .  S
O1620      C1623   1.277       .  A
Cu1621    Cu1622   2.377       .  S
C1623      C2077   1.484       .  S
C1624      C1679   1.456       .  S
C1625      C1637   1.462       .  S
C1626      C1638   1.464       .  S
O1627     Cu1635   2.003       .  S
O1627      C1637   1.277       .  A
O1628     Cu1635   2.005       .  S
O1628      C1638   1.277       .  A
O1629     Cu1635   2.006       .  S
O1629      C1639   1.276       .  A
O1630     Cu1635   2.005       .  S
O1630      C1640   1.277       .  A
O1631     Cu1636   2.006       .  S
O1631      C1640   1.279       .  A
O1632     Cu1636   2.007       .  S
O1632      C1639   1.276       .  A
O1633     Cu1636   2.004       .  S
O1633      C1638   1.277       .  A
O1634     Cu1636   2.003       .  S
O1634      C1637   1.277       .  A
Cu1635    Cu1636   2.376       .  S
C1639      C1696   1.456       .  S
C1640      C2065   1.486       .  S
O1641      C1651   1.277       .  A
O1642     Cu1649   2.008       .  S
O1642      C1652   1.278       .  A
O1643     Cu1649   2.008       .  S
O1643      C1653   1.276       .  A
O1644     Cu1649   2.008       .  S
O1644      C1654   1.278       .  A
O1645     Cu1650   2.008       .  S
O1646     Cu1650   2.010       .  S
O1647     Cu1650   2.006       .  S
O1655      C1665   1.278       .  A
O1656     Cu1663   2.012       .  S
O1656      C1666   1.278       .  A
O1657     Cu1663   2.005       .  S
O1657      C1667   1.276       .  A
O1658     Cu1663   2.003       .  S
O1658      C1668   1.277       .  A
O1659     Cu1664   2.011       .  S
O1659      C1668   1.279       .  A
O1660     Cu1664   2.013       .  S
O1660      C1667   1.278       .  A
O1661     Cu1664   2.003       .  S
O1661      C1666   1.276       .  A
O1662      C1665   1.276       .  A
Cu1663    Cu1664   2.376       .  S
C1665      C1693   1.463       .  S
C1666      C1694   1.465       .  S
C1668      C2041   1.484       .  S
O1669     Cu1677   2.006       .  S
O1670     Cu1677   2.007       .  S
O1670      C1680   1.278       .  A
O1671     Cu1677   2.005       .  S
O1672     Cu1677   2.006       .  S
O1673     Cu1678   2.007       .  S
O1673      C1682   1.278   1_565  A
O1674     Cu1678   2.004       .  S
O1674      C1681   1.277   1_565  A
O1675     Cu1678   2.007       .  S
O1676     Cu1678   2.006       .  S
O1676      C1679   1.276   1_565  A
O1683     Cu1691   2.002       .  S
O1683      C1693   1.277       .  A
O1684     Cu1691   2.003       .  S
O1684      C1694   1.276       .  A
O1685     Cu1691   2.007       .  S
O1685      C1695   1.278       .  A
O1686     Cu1691   2.008       .  S
O1686      C1696   1.277       .  A
O1687     Cu1692   2.005       .  S
O1687      C1696   1.276       .  A
O1688     Cu1692   2.006       .  S
O1688      C1695   1.278       .  A
O1689     Cu1692   2.010       .  S
O1689      C1694   1.278       .  A
O1690     Cu1692   2.007       .  S
O1690      C1693   1.278       .  A
Cu1691    Cu1692   2.377       .  S
C1695      C2020   1.484       .  S
O1697     Cu1705   2.008       .  S
O1698     Cu1705   2.008       .  S
O1699     Cu1705   2.006       .  S
O1701     Cu1706   2.006       .  S
O1701      C1710   1.277   1_565  A
O1702      C1709   1.277   1_565  A
O1703     Cu1706   2.005       .  S
O1703      C1708   1.278   1_565  A
O1704     Cu1706   2.005       .  S
C1707      C2053   1.485       .  S
C1708      C2008   1.482       .  S
C1709      C1736   1.464       .  S
C1710      C1735   1.464       .  S
O1711     Cu1719   2.007       .  S
O1711      C1721   1.278       .  A
O1712     Cu1719   2.006       .  S
O1712      C1722   1.278       .  A
O1713      C1723   1.277       .  A
O1714     Cu1719   2.004       .  S
O1714      C1724   1.277       .  A
O1715     Cu1720   2.008       .  S
O1715      C1724   1.278       .  A
O1716      C1723   1.277       .  A
O1717     Cu1720   2.006       .  S
O1717      C1722   1.278       .  A
O1718     Cu1720   2.006       .  S
O1718      C1721   1.278       .  A
Cu1719    Cu1720   2.374       .  S
C1721      C2044   1.484       .  S
C1722      C1996   1.484       .  S
C1723      C1749   1.464       .  S
C1724      C1750   1.465       .  S
O1725     Cu1733   2.006       .  S
O1725      C1735   1.277   1_565  A
O1726     Cu1733   2.006       .  S
O1726      C1736   1.277   1_565  A
O1727     Cu1733   2.002       .  S
O1727      C1737   1.278   1_565  A
O1728     Cu1733   2.004       .  S
O1728      C1738   1.277       .  A
O1729     Cu1734   2.014       .  S
O1730     Cu1734   2.016       .  S
O1731     Cu1734   2.005       .  S
O1732     Cu1734   2.006       .  S
C1737      C2032   1.486       .  S
C1738      C1984   1.485       .  S
O1739     Cu1747   2.005       .  S
O1739      C1749   1.277       .  A
O1740     Cu1747   2.004       .  S
O1740      C1750   1.277       .  A
O1741     Cu1747   2.009       .  S
O1741      C1751   1.278       .  A
O1742     Cu1747   2.008       .  S
O1742      C1752   1.279       .  A
O1743     Cu1748   2.004       .  S
O1743      C1752   1.277       .  A
O1744     Cu1748   2.004       .  S
O1744      C1751   1.278       .  A
O1745     Cu1748   2.009       .  S
O1745      C1750   1.278       .  A
O1746     Cu1748   2.005       .  S
O1746      C1749   1.277       .  A
Cu1747    Cu1748   2.374       .  S
C1751      C1969   1.485       .  S
C1752      C2017   1.483       .  S
O1753     Cu1761   2.003   1_554  S
O1753      C1763   1.277       .  A
O1754     Cu1761   2.004       .  S
O1754      C1764   1.276       .  A
O1755      C1765   1.278       .  A
O1756     Cu1761   2.004       .  S
O1756      C1766   1.277       .  A
O1757     Cu1762   2.006       .  S
O1759     Cu1762   2.014       .  S
O1760     Cu1762   2.014   1_554  S
C1764      C1960   1.470       .  S
C1765      C1778   1.463       .  S
C1766      C1777   1.463       .  S
O1767     Cu1775   2.004       .  S
O1768     Cu1775   2.008       .  S
O1769     Cu1775   2.007   1_554  S
O1769      C1779   1.278       .  A
O1770     Cu1775   2.002       .  S
O1771     Cu1776   2.006       .  S
O1771      C1780   1.277       .  A
O1772     Cu1776   2.005   1_554  S
O1773     Cu1776   2.000       .  S
O1773      C1778   1.276       .  A
O1774     Cu1776   2.005       .  S
O1774      C1777   1.277       .  A
C1779      C2092   1.485       .  S
C1780      C1948   1.477       .  S
O1781     Cu1789   2.002   1_554  S
O1781      C1791   1.278       .  A
O1782     Cu1789   2.001       .  S
O1782      C1792   1.277       .  A
O1783     Cu1789   2.001       .  S
O1783      C1793   1.276       .  A
O1784      C1794   1.277       .  A
O1785      C1794   1.277       .  A
O1786     Cu1790   2.005       .  S
O1786      C1793   1.278       .  A
O1787     Cu1790   2.003       .  S
O1787      C1792   1.277       .  A
O1788     Cu1790   2.003   1_554  S
O1788      C1791   1.277       .  A
Cu1789    Cu1790   2.375       .  S
C1791      C2080   1.483       .  S
C1792      C1933   1.477       .  S
C1793      C1808   1.463       .  S
C1794      C1807   1.464       .  S
O1795     Cu1803   2.008   1_554  S
O1795      C1805   1.278       .  A
O1796     Cu1803   2.010       .  S
O1796      C1806   1.277       .  A
O1797     Cu1803   2.003       .  S
O1797      C1807   1.277       .  A
O1798     Cu1803   2.008       .  S
O1798      C1808   1.278       .  A
O1799     Cu1804   1.999       .  S
O1799      C1808   1.276       .  A
O1800     Cu1804   2.006       .  S
O1800      C1807   1.277       .  A
O1801     Cu1804   2.008       .  S
O1801      C1806   1.277       .  A
O1802     Cu1804   2.007   1_554  S
O1802      C1805   1.278       .  A
Cu1803    Cu1804   2.376       .  S
C1805      C2068   1.487       .  S
C1806      C1921   1.470       .  S
O1810     Cu1817   2.006       .  S
O1811     Cu1817   2.006       .  S
O1812     Cu1817   2.007       .  S
O1813     Cu1818   2.010       .  S
O1813      C1822   1.277       .  A
O1814     Cu1818   2.010       .  S
O1814      C1821   1.277       .  A
O1815     Cu1818   2.004       .  S
O1815      C1820   1.277       .  A
O1816      C1819   1.278       .  A
C1819      C1836   1.463       .  S
C1820      C1835   1.464       .  S
C1821      C1957   1.470       .  S
O1823     Cu1831   2.010       .  S
O1823      C1833   1.278       .  A
O1824     Cu1831   2.011       .  S
O1824      C1834   1.277       .  A
O1825     Cu1831   2.006       .  S
O1825      C1835   1.277       .  A
O1826     Cu1831   2.000       .  S
O1826      C1836   1.276       .  A
O1827     Cu1832   2.007       .  S
O1828     Cu1832   2.004       .  S
O1829     Cu1832   2.000       .  S
O1830     Cu1832   1.998       .  S
C1833      C1945   1.476       .  S
C1834      C1892   1.456       .  S
O1837     Cu1845   2.006       .  S
O1837      C1847   1.276       .  A
O1838     Cu1845   2.004       .  S
O1838      C1848   1.278       .  A
O1839      C1849   1.277       .  A
O1840     Cu1845   2.002       .  S
O1840      C1850   1.277       .  A
O1841     Cu1846   2.005       .  S
O1841      C1850   1.278       .  A
O1842      C1849   1.277       .  A
O1843     Cu1846   2.002       .  S
O1843      C1848   1.277       .  A
O1844     Cu1846   2.005       .  S
O1844      C1847   1.276       .  A
Cu1845    Cu1846   2.378       .  S
C1847      C1904   1.456       .  S
C1848      C1936   1.478       .  S
C1849      C1864   1.464       .  S
C1850      C1863   1.463       .  S
O1851     Cu1859   2.012       .  S
O1851      C1861   1.278       .  A
O1852     Cu1859   2.011       .  S
O1852      C1862   1.277       .  A
O1853     Cu1859   1.999       .  S
O1853      C1863   1.276       .  A
O1854     Cu1859   2.006       .  S
O1854      C1864   1.277       .  A
O1855     Cu1860   2.005       .  S
O1855      C1864   1.277       .  A
O1856     Cu1860   2.007       .  S
O1856      C1863   1.278       .  A
O1857     Cu1860   2.006       .  S
O1857      C1862   1.276       .  A
O1858     Cu1860   2.005       .  S
O1858      C1861   1.277       .  A
Cu1859    Cu1860   2.379       .  S
C1861      C1924   1.470       .  S
C1862      C1917   1.458       .  S
O1866     Cu1873   2.007       .  S
O1867     Cu1873   2.004       .  S
O1869     Cu1874   2.012       .  S
O1869      C1878   1.277       .  A
O1870     Cu1874   2.012       .  S
O1870      C1877   1.279       .  A
O1871      C1876   1.277       .  A
O1872     Cu1874   2.007   1_655  S
O1872      C1875   1.277       .  A
C1875      C1906   1.465       .  S
C1876      C1905   1.464       .  S
C1877      C2005   1.483       .  S
O1879     Cu1887   2.002       .  S
O1879      C1889   1.277       .  A
O1880      C1890   1.277       .  A
O1881     Cu1887   2.003       .  S
O1881      C1891   1.279       .  A
O1882     Cu1887   2.004       .  S
O1882      C1892   1.276       .  A
O1883     Cu1888   2.008       .  S
O1883      C1892   1.277       .  A
O1884     Cu1888   2.010       .  S
O1884      C1891   1.278       .  A
O1885      C1890   1.278       .  A
O1886     Cu1888   2.010       .  S
O1886      C1889   1.278       .  A
Cu1887    Cu1888   2.377       .  S
C1889      C1920   1.465       .  S
C1890      C1919   1.464       .  S
C1891      C1993   1.485       .  S
O1893     Cu1901   2.010       .  S
O1893      C1903   1.279       .  A
O1894     Cu1901   2.009       .  S
O1894      C1904   1.277       .  A
O1895     Cu1901   2.005       .  S
O1895      C1905   1.277       .  A
O1896     Cu1901   2.007       .  S
O1896      C1906   1.277       .  A
O1897     Cu1902   2.004       .  S
O1898     Cu1902   2.005       .  S
O1899     Cu1902   2.004       .  S
O1900     Cu1902   2.003       .  S
C1903      C1981   1.484       .  S
O1907     Cu1915   2.002       .  S
O1907      C1917   1.275       .  A
O1908     Cu1915   2.000       .  S
O1908      C1918   1.277       .  A
O1909     Cu1915   2.008       .  S
O1909      C1919   1.278       .  A
O1910     Cu1915   2.010       .  S
O1910      C1920   1.278       .  A
O1911     Cu1916   2.005       .  S
O1911      C1920   1.277       .  A
O1912     Cu1916   2.000       .  S
O1912      C1919   1.276       .  A
O1913     Cu1916   2.014       .  S
O1913      C1918   1.279       .  A
O1914     Cu1916   2.015       .  S
O1914      C1917   1.278       .  A
Cu1915    Cu1916   2.376       .  S
C1918      C1972   1.485       .  S
C1921      C1922   1.403       .  A
C1921      C1926   1.409       .  A
C1922      C1923   1.401       .  A
C1922      H1927   1.085       .  S
C1923      C1924   1.410       .  A
C1923      C1930   1.444       .  S
C1924      C1925   1.402       .  A
C1925      C1926   1.400       .  A
C1925      H1928   1.085       .  S
C1926      C1929   1.444       .  S
C1929      N1931   1.157       .  T
C1930      N1932   1.157       .  T
C1933      C1938   1.413       .  A
C1934      C1935   1.399       .  A
C1934      H1939   1.086       .  S
C1935      C1942   1.443       .  S
C1936      C1937   1.403       .  A
C1937      C1938   1.398       .  A
C1937      H1940   1.086       .  S
C1938      C1941   1.444       .  S
C1941      N1943   1.157       .  T
C1942      N1944   1.157       .  T
C1945      C1950   1.412       .  A
C1946      C1947   1.397       .  A
C1946      H1951   1.085       .  S
C1947      C1954   1.444       .  S
C1948      C1949   1.405       .  A
C1949      C1950   1.401       .  A
C1949      H1952   1.084       .  S
C1950      C1953   1.444       .  S
C1953      N1955   1.157       .  T
C1954      N1956   1.157       .  T
C1957      C1958   1.402       .  A
C1958      C1959   1.400       .  A
C1958      H1963   1.084       .  S
C1959      C1960   1.410       .  A
C1959      C1966   1.444       .  S
C1961      C1962   1.401       .  A
C1961      H1964   1.084       .  S
C1962      C1965   1.444       .  S
C1965      N1967   1.157       .  T
C1966      N1968   1.157       .  T
C1969      C1970   1.406       .  A
C1969      C1974   1.415       .  A
C1970      C1971   1.401       .  A
C1970      H1975   1.084       .  S
C1971      C1972   1.414       .  A
C1971      C1978   1.444       .  S
C1972      C1973   1.406       .  A
C1973      C1974   1.399       .  A
C1973      H1976   1.084       .  S
C1974      C1977   1.445       .  S
C1977      N1979   1.157       .  T
C1978      N1980   1.157       .  T
C1981      C1982   1.405       .  A
C1982      C1983   1.401       .  A
C1982      H1987   1.084       .  S
C1983      C1984   1.416       .  A
C1983      C1990   1.445       .  S
C1985      C1986   1.399       .  A
C1985      H1988   1.084       .  S
C1986      C1989   1.445       .  S
C1989      N1991   1.157       .  T
C1990      N1992   1.157       .  T
C1993      C1994   1.405       .  A
C1994      C1995   1.398       .  A
C1994      H1999   1.085       .  S
C1995      C1996   1.414       .  A
C1995      C2002   1.445       .  S
C1997      C1998   1.401       .  A
C1997      H2000   1.085       .  S
C1998      C2001   1.445       .  S
C2001      N2003   1.158       .  T
C2002      N2004   1.157       .  T
C2006      C2007   1.400       .  A
C2006      H2011   1.084       .  S
C2007      C2014   1.445       .  S
C2009      C2010   1.400       .  A
C2009      H2012   1.084       .  S
C2010      C2013   1.445       .  S
C2013      N2015   1.157       .  T
C2014      N2016   1.157       .  T
C2017      C2018   1.404       .  A
C2017      C2022   1.415       .  A
C2018      C2019   1.399       .  A
C2018      H2023   1.084       .  S
C2019      C2020   1.414       .  A
C2019      C2026   1.445       .  S
C2020      C2021   1.406       .  A
C2021      C2022   1.401       .  A
C2021      H2024   1.084       .  S
C2022      C2025   1.445       .  S
C2025      N2027   1.157       .  T
C2026      N2028   1.157       .  T
C2029      C2034   1.414   1_545  A
C2030      C2031   1.402       .  A
C2030      H2035   1.085       .  S
C2031      C2038   1.444       .  S
C2032      C2033   1.405   1_545  A
C2033      C2034   1.398       .  A
C2033      H2036   1.085       .  S
C2034      C2037   1.445       .  S
C2037      N2039   1.157       .  T
C2038      N2040   1.157       .  T
C2041      C2042   1.405       .  A
C2042      C2043   1.400       .  A
C2042      H2047   1.084       .  S
C2043      C2044   1.414       .  A
C2043      C2050   1.444       .  S
C2045      C2046   1.400       .  A
C2045      H2048   1.085       .  S
C2046      C2049   1.445       .  S
C2049      N2051   1.157       .  T
C2050      N2052   1.157       .  T
C2053      C2054   1.405   1_545  A
C2054      C2055   1.400       .  A
C2054      H2059   1.085       .  S
C2055      C2056   1.415   1_565  A
C2055      C2062   1.444       .  S
C2057      C2058   1.400       .  A
C2057      H2060   1.085       .  S
C2058      C2061   1.444       .  S
C2061      N2063   1.157       .  T
C2062      N2064   1.157       .  T
C2065      C2066   1.405       .  A
C2065      C2070   1.416       .  A
C2066      C2067   1.399       .  A
C2066      H2071   1.085       .  S
C2067      C2068   1.415       .  A
C2067      C2074   1.444       .  S
C2068      C2069   1.406       .  A
C2069      C2070   1.401       .  A
C2069      H2072   1.085       .  S
C2070      C2073   1.445       .  S
C2073      N2075   1.157       .  T
C2074      N2076   1.157       .  T
C2077      C2078   1.406   1_545  A
C2078      C2079   1.400       .  A
C2078      H2083   1.085       .  S
C2079      C2080   1.415       .  A
C2079      C2086   1.445       .  S
C2081      C2082   1.398       .  A
C2081      H2084   1.085       .  S
C2082      C2085   1.445       .  S
C2085      N2087   1.157       .  T
C2086      N2088   1.157       .  T
C2089      C2094   1.414       .  A
C2090      C2091   1.396       .  A
C2090      H2095   1.085       .  S
C2091      C2098   1.445       .  S
C2092      C2093   1.408       .  A
C2093      C2094   1.403       .  A
C2093      H2096   1.085       .  S
C2094      C2097   1.445       .  S
C2097      N2099   1.158       .  T
C2098      N2100   1.157       .  T
C2102      C2103   1.399       .  A
C2102      H2107   1.086       .  S
C2103      C2110   1.445       .  S
C2105      C2106   1.402       .  A
C2105      H2108   1.085       .  S
C2106      C2109   1.445       .  S
C2109      N2111   1.157       .  T
C2110      N2112   1.157       .  T
